MODEL 1
REMARK VINA RESULT:    -7.967      0.000      0.000
REMARK INTER + INTRA:         -13.843
REMARK INTER:                 -12.391
REMARK INTRA:                  -1.452
REMARK UNBOUND:                -1.452
REMARK SMILES CCC(=O)N(Cc1cccc(CO)c1)C1CCN(CCc2ccccc2)CC1
REMARK SMILES IDX 5 1 3 2 4 3 2 4 1 5 6 6 7 7 14 8 8 9 11 10 9 11 10 12 12 13
REMARK SMILES IDX 13 14 15 16 16 17 28 18 17 19 27 20 18 21 19 22 20 23 21 24
REMARK SMILES IDX 22 25 26 26 23 27 25 28 24 29
REMARK H PARENT 13 15
REMARK Flexibility Score: inf
ROOT
ATOM      1  N   UNL     1     125.865 168.097 150.414  1.00  0.00    -0.335 N 
ENDROOT
BRANCH   1   2
ATOM      2  C   UNL     1     125.755 168.720 151.682  1.00  0.00     0.222 C 
ATOM      3  O   UNL     1     126.209 168.443 152.816  1.00  0.00    -0.275 OA
BRANCH   2   4
ATOM      4  C   UNL     1     125.132 169.893 152.319  1.00  0.00     0.097 C 
ATOM      5  C   UNL     1     124.961 170.972 151.277  1.00  0.00     0.014 C 
ENDBRANCH   2   4
ENDBRANCH   1   2
BRANCH   1   6
ATOM      6  C   UNL     1     127.125 168.267 149.740  1.00  0.00     0.155 C 
BRANCH   6   7
ATOM      7  C   UNL     1     127.372 169.579 149.156  1.00  0.00    -0.028 A 
ATOM      8  C   UNL     1     128.301 170.467 149.709  1.00  0.00     0.011 A 
ATOM      9  C   UNL     1     126.763 170.137 148.035  1.00  0.00     0.005 A 
ATOM     10  C   UNL     1     128.638 171.744 149.274  1.00  0.00    -0.022 A 
ATOM     11  C   UNL     1     127.020 171.387 147.518  1.00  0.00     0.001 A 
ATOM     12  C   UNL     1     127.951 172.178 148.139  1.00  0.00     0.006 A 
BRANCH  10  13
ATOM     13  C   UNL     1     129.645 172.549 149.980  1.00  0.00     0.191 C 
BRANCH  13  14
ATOM     14  O   UNL     1     129.169 173.230 151.088  1.00  0.00    -0.392 OA
ATOM     15  H   UNL     1     129.874 173.666 151.615  1.00  0.00     0.211 HD
ENDBRANCH  13  14
ENDBRANCH  10  13
ENDBRANCH   6   7
ENDBRANCH   1   6
BRANCH   1  16
ATOM     16  C   UNL     1     124.555 167.504 150.282  1.00  0.00     0.088 C 
ATOM     17  C   UNL     1     124.499 166.251 151.081  1.00  0.00     0.041 C 
ATOM     18  C   UNL     1     124.298 167.285 148.812  1.00  0.00     0.041 C 
ATOM     19  C   UNL     1     123.337 165.362 150.712  1.00  0.00     0.086 C 
ATOM     20  C   UNL     1     123.176 166.320 148.517  1.00  0.00     0.086 C 
ATOM     21  N   UNL     1     123.191 165.122 149.302  1.00  0.00    -0.303 NA
BRANCH  21  22
ATOM     22  C   UNL     1     124.052 164.098 148.802  1.00  0.00     0.089 C 
BRANCH  22  23
ATOM     23  C   UNL     1     123.548 162.699 148.865  1.00  0.00     0.051 C 
BRANCH  23  24
ATOM     24  C   UNL     1     124.522 161.673 148.417  1.00  0.00    -0.047 A 
ATOM     25  C   UNL     1     124.379 161.220 147.096  1.00  0.00     0.004 A 
ATOM     26  C   UNL     1     125.563 161.073 149.089  1.00  0.00     0.004 A 
ATOM     27  C   UNL     1     125.172 160.274 146.485  1.00  0.00     0.000 A 
ATOM     28  C   UNL     1     126.365 160.136 148.512  1.00  0.00     0.000 A 
ATOM     29  C   UNL     1     126.198 159.714 147.213  1.00  0.00     0.000 A 
ENDBRANCH  23  24
ENDBRANCH  22  23
ENDBRANCH  21  22
ENDBRANCH   1  16
TORSDOF 10
ENDMDL
MODEL 2
REMARK VINA RESULT:    -7.818      1.906      2.727
REMARK INTER + INTRA:         -13.611
REMARK INTER:                 -12.220
REMARK INTRA:                  -1.391
REMARK UNBOUND:                -1.452
REMARK SMILES CCC(=O)N(Cc1cccc(CO)c1)C1CCN(CCc2ccccc2)CC1
REMARK SMILES IDX 5 1 3 2 4 3 2 4 1 5 6 6 7 7 14 8 8 9 11 10 9 11 10 12 12 13
REMARK SMILES IDX 13 14 15 16 16 17 28 18 17 19 27 20 18 21 19 22 20 23 21 24
REMARK SMILES IDX 22 25 26 26 23 27 25 28 24 29
REMARK H PARENT 13 15
REMARK Flexibility Score: inf
ROOT
ATOM      1  N   UNL     1     125.197 168.599 152.139  1.00  0.00    -0.335 N 
ENDROOT
BRANCH   1   2
ATOM      2  C   UNL     1     124.981 168.814 153.523  1.00  0.00     0.222 C 
ATOM      3  O   UNL     1     125.676 168.603 154.543  1.00  0.00    -0.275 OA
BRANCH   2   4
ATOM      4  C   UNL     1     123.956 169.340 154.443  1.00  0.00     0.097 C 
ATOM      5  C   UNL     1     123.017 168.216 154.809  1.00  0.00     0.014 C 
ENDBRANCH   2   4
ENDBRANCH   1   2
BRANCH   1   6
ATOM      6  C   UNL     1     124.968 169.735 151.286  1.00  0.00     0.155 C 
BRANCH   6   7
ATOM      7  C   UNL     1     126.095 170.640 151.103  1.00  0.00    -0.028 A 
ATOM      8  C   UNL     1     126.846 170.650 149.922  1.00  0.00     0.011 A 
ATOM      9  C   UNL     1     126.587 171.577 152.008  1.00  0.00     0.005 A 
ATOM     10  C   UNL     1     127.943 171.443 149.604  1.00  0.00    -0.022 A 
ATOM     11  C   UNL     1     127.662 172.411 151.798  1.00  0.00     0.001 A 
ATOM     12  C   UNL     1     128.330 172.338 150.604  1.00  0.00     0.006 A 
BRANCH  10  13
ATOM     13  C   UNL     1     128.622 171.321 148.306  1.00  0.00     0.191 C 
BRANCH  13  14
ATOM     14  O   UNL     1     128.995 170.031 147.967  1.00  0.00    -0.392 OA
ATOM     15  H   UNL     1     128.759 169.783 147.046  1.00  0.00     0.211 HD
ENDBRANCH  13  14
ENDBRANCH  10  13
ENDBRANCH   6   7
ENDBRANCH   1   6
BRANCH   1  16
ATOM     16  C   UNL     1     125.577 167.205 152.131  1.00  0.00     0.088 C 
ATOM     17  C   UNL     1     126.594 166.979 151.069  1.00  0.00     0.041 C 
ATOM     18  C   UNL     1     124.323 166.391 151.939  1.00  0.00     0.041 C 
ATOM     19  C   UNL     1     126.767 165.523 150.715  1.00  0.00     0.086 C 
ATOM     20  C   UNL     1     124.571 164.967 151.505  1.00  0.00     0.086 C 
ATOM     21  N   UNL     1     125.541 164.817 150.463  1.00  0.00    -0.303 NA
BRANCH  21  22
ATOM     22  C   UNL     1     125.028 165.011 149.144  1.00  0.00     0.089 C 
BRANCH  22  23
ATOM     23  C   UNL     1     123.902 164.135 148.720  1.00  0.00     0.051 C 
BRANCH  23  24
ATOM     24  C   UNL     1     124.251 162.698 148.598  1.00  0.00    -0.047 A 
ATOM     25  C   UNL     1     123.280 161.787 149.042  1.00  0.00     0.004 A 
ATOM     26  C   UNL     1     125.390 162.090 148.118  1.00  0.00     0.004 A 
ATOM     27  C   UNL     1     123.402 160.415 149.021  1.00  0.00     0.000 A 
ATOM     28  C   UNL     1     125.540 160.738 148.084  1.00  0.00     0.000 A 
ATOM     29  C   UNL     1     124.567 159.871 148.526  1.00  0.00     0.000 A 
ENDBRANCH  23  24
ENDBRANCH  22  23
ENDBRANCH  21  22
ENDBRANCH   1  16
TORSDOF 10
ENDMDL
MODEL 3
REMARK VINA RESULT:    -7.721      1.556      2.158
REMARK INTER + INTRA:         -13.460
REMARK INTER:                 -12.030
REMARK INTRA:                  -1.430
REMARK UNBOUND:                -1.452
REMARK SMILES CCC(=O)N(Cc1cccc(CO)c1)C1CCN(CCc2ccccc2)CC1
REMARK SMILES IDX 5 1 3 2 4 3 2 4 1 5 6 6 7 7 14 8 8 9 11 10 9 11 10 12 12 13
REMARK SMILES IDX 13 14 15 16 16 17 28 18 17 19 27 20 18 21 19 22 20 23 21 24
REMARK SMILES IDX 22 25 26 26 23 27 25 28 24 29
REMARK H PARENT 13 15
REMARK Flexibility Score: inf
ROOT
ATOM      1  N   UNL     1     125.414 168.598 151.998  1.00  0.00    -0.335 N 
ENDROOT
BRANCH   1   2
ATOM      2  C   UNL     1     125.665 169.029 153.325  1.00  0.00     0.222 C 
ATOM      3  O   UNL     1     126.680 169.004 154.057  1.00  0.00    -0.275 OA
BRANCH   2   4
ATOM      4  C   UNL     1     124.975 169.670 154.458  1.00  0.00     0.097 C 
ATOM      5  C   UNL     1     123.595 169.072 154.583  1.00  0.00     0.014 C 
ENDBRANCH   2   4
ENDBRANCH   1   2
BRANCH   1   6
ATOM      6  C   UNL     1     125.048 169.629 151.063  1.00  0.00     0.155 C 
BRANCH   6   7
ATOM      7  C   UNL     1     126.119 170.136 150.213  1.00  0.00    -0.028 A 
ATOM      8  C   UNL     1     127.033 171.090 150.673  1.00  0.00     0.011 A 
ATOM      9  C   UNL     1     126.389 169.789 148.892  1.00  0.00     0.005 A 
ATOM     10  C   UNL     1     128.094 171.669 149.985  1.00  0.00    -0.022 A 
ATOM     11  C   UNL     1     127.409 170.298 148.120  1.00  0.00     0.001 A 
ATOM     12  C   UNL     1     128.250 171.231 148.669  1.00  0.00     0.006 A 
BRANCH  10  13
ATOM     13  C   UNL     1     128.964 172.666 150.625  1.00  0.00     0.191 C 
BRANCH  13  14
ATOM     14  O   UNL     1     129.872 173.273 149.773  1.00  0.00    -0.392 OA
ATOM     15  H   UNL     1     130.540 173.823 150.238  1.00  0.00     0.211 HD
ENDBRANCH  13  14
ENDBRANCH  10  13
ENDBRANCH   6   7
ENDBRANCH   1   6
BRANCH   1  16
ATOM     16  C   UNL     1     125.625 167.174 152.124  1.00  0.00     0.088 C 
ATOM     17  C   UNL     1     126.721 166.757 151.210  1.00  0.00     0.041 C 
ATOM     18  C   UNL     1     124.313 166.490 151.834  1.00  0.00     0.041 C 
ATOM     19  C   UNL     1     126.761 165.268 150.972  1.00  0.00     0.086 C 
ATOM     20  C   UNL     1     124.439 165.019 151.524  1.00  0.00     0.086 C 
ATOM     21  N   UNL     1     125.496 164.683 150.619  1.00  0.00    -0.303 NA
BRANCH  21  22
ATOM     22  C   UNL     1     125.162 164.830 149.238  1.00  0.00     0.089 C 
BRANCH  22  23
ATOM     23  C   UNL     1     123.959 164.100 148.751  1.00  0.00     0.051 C 
BRANCH  23  24
ATOM     24  C   UNL     1     124.110 162.625 148.708  1.00  0.00    -0.047 A 
ATOM     25  C   UNL     1     125.324 162.143 148.193  1.00  0.00     0.004 A 
ATOM     26  C   UNL     1     123.245 161.624 149.091  1.00  0.00     0.004 A 
ATOM     27  C   UNL     1     125.666 160.815 148.063  1.00  0.00     0.000 A 
ATOM     28  C   UNL     1     123.555 160.304 148.976  1.00  0.00     0.000 A 
ATOM     29  C   UNL     1     124.755 159.864 148.467  1.00  0.00     0.000 A 
ENDBRANCH  23  24
ENDBRANCH  22  23
ENDBRANCH  21  22
ENDBRANCH   1  16
TORSDOF 10
ENDMDL
MODEL 4
REMARK VINA RESULT:    -7.638      1.976      3.220
REMARK INTER + INTRA:         -13.332
REMARK INTER:                 -11.784
REMARK INTRA:                  -1.548
REMARK UNBOUND:                -1.452
REMARK SMILES CCC(=O)N(Cc1cccc(CO)c1)C1CCN(CCc2ccccc2)CC1
REMARK SMILES IDX 5 1 3 2 4 3 2 4 1 5 6 6 7 7 14 8 8 9 11 10 9 11 10 12 12 13
REMARK SMILES IDX 13 14 15 16 16 17 28 18 17 19 27 20 18 21 19 22 20 23 21 24
REMARK SMILES IDX 22 25 26 26 23 27 25 28 24 29
REMARK H PARENT 13 15
REMARK Flexibility Score: inf
ROOT
ATOM      1  N   UNL     1     127.538 168.919 150.045  1.00  0.00    -0.335 N 
ENDROOT
BRANCH   1   2
ATOM      2  C   UNL     1     127.642 169.640 148.829  1.00  0.00     0.222 C 
ATOM      3  O   UNL     1     128.513 169.685 147.931  1.00  0.00    -0.275 OA
BRANCH   2   4
ATOM      4  C   UNL     1     126.891 170.619 148.024  1.00  0.00     0.097 C 
ATOM      5  C   UNL     1     127.666 171.914 147.996  1.00  0.00     0.014 C 
ENDBRANCH   2   4
ENDBRANCH   1   2
BRANCH   1   6
ATOM      6  C   UNL     1     128.662 169.028 150.936  1.00  0.00     0.155 C 
BRANCH   6   7
ATOM      7  C   UNL     1     129.038 170.379 151.336  1.00  0.00    -0.028 A 
ATOM      8  C   UNL     1     128.140 171.228 151.991  1.00  0.00     0.011 A 
ATOM      9  C   UNL     1     130.263 171.012 151.140  1.00  0.00     0.005 A 
ATOM     10  C   UNL     1     128.347 172.533 152.424  1.00  0.00    -0.022 A 
ATOM     11  C   UNL     1     130.576 172.295 151.528  1.00  0.00     0.001 A 
ATOM     12  C   UNL     1     129.620 173.044 152.163  1.00  0.00     0.006 A 
BRANCH  10  13
ATOM     13  C   UNL     1     127.284 173.290 153.101  1.00  0.00     0.191 C 
BRANCH  13  14
ATOM     14  O   UNL     1     127.000 174.521 152.535  1.00  0.00    -0.392 OA
ATOM     15  H   UNL     1     127.772 175.129 152.507  1.00  0.00     0.211 HD
ENDBRANCH  13  14
ENDBRANCH  10  13
ENDBRANCH   6   7
ENDBRANCH   1   6
BRANCH   1  16
ATOM     16  C   UNL     1     126.245 168.295 149.888  1.00  0.00     0.088 C 
ATOM     17  C   UNL     1     125.715 167.916 151.225  1.00  0.00     0.041 C 
ATOM     18  C   UNL     1     126.414 167.119 148.959  1.00  0.00     0.041 C 
ATOM     19  C   UNL     1     124.579 166.926 151.155  1.00  0.00     0.086 C 
ATOM     20  C   UNL     1     125.278 166.128 149.003  1.00  0.00     0.086 C 
ATOM     21  N   UNL     1     124.829 165.784 150.319  1.00  0.00    -0.303 NA
BRANCH  21  22
ATOM     22  C   UNL     1     125.596 164.762 150.957  1.00  0.00     0.089 C 
BRANCH  22  23
ATOM     23  C   UNL     1     124.915 163.463 151.211  1.00  0.00     0.051 C 
BRANCH  23  24
ATOM     24  C   UNL     1     124.792 162.590 150.017  1.00  0.00    -0.047 A 
ATOM     25  C   UNL     1     125.851 161.697 149.793  1.00  0.00     0.004 A 
ATOM     26  C   UNL     1     123.797 162.505 149.068  1.00  0.00     0.004 A 
ATOM     27  C   UNL     1     125.937 160.805 148.747  1.00  0.00     0.000 A 
ATOM     28  C   UNL     1     123.852 161.634 148.025  1.00  0.00     0.000 A 
ATOM     29  C   UNL     1     124.906 160.770 147.833  1.00  0.00     0.000 A 
ENDBRANCH  23  24
ENDBRANCH  22  23
ENDBRANCH  21  22
ENDBRANCH   1  16
TORSDOF 10
ENDMDL
MODEL 5
REMARK VINA RESULT:    -7.544      2.139      3.928
REMARK INTER + INTRA:         -13.185
REMARK INTER:                 -11.830
REMARK INTRA:                  -1.355
REMARK UNBOUND:                -1.452
REMARK SMILES CCC(=O)N(Cc1cccc(CO)c1)C1CCN(CCc2ccccc2)CC1
REMARK SMILES IDX 5 1 3 2 4 3 2 4 1 5 6 6 7 7 14 8 8 9 11 10 9 11 10 12 12 13
REMARK SMILES IDX 13 14 15 16 16 17 28 18 17 19 27 20 18 21 19 22 20 23 21 24
REMARK SMILES IDX 22 25 26 26 23 27 25 28 24 29
REMARK H PARENT 13 15
REMARK Flexibility Score: inf
ROOT
ATOM      1  N   UNL     1     126.269 170.100 149.774  1.00  0.00    -0.335 N 
ENDROOT
BRANCH   1   2
ATOM      2  C   UNL     1     126.883 170.870 148.755  1.00  0.00     0.222 C 
ATOM      3  O   UNL     1     126.466 171.358 147.680  1.00  0.00    -0.275 OA
BRANCH   2   4
ATOM      4  C   UNL     1     128.188 171.463 148.412  1.00  0.00     0.097 C 
ATOM      5  C   UNL     1     129.063 171.443 149.641  1.00  0.00     0.014 C 
ENDBRANCH   2   4
ENDBRANCH   1   2
BRANCH   1   6
ATOM      6  C   UNL     1     125.400 170.821 150.666  1.00  0.00     0.155 C 
BRANCH   6   7
ATOM      7  C   UNL     1     125.954 171.161 151.971  1.00  0.00    -0.028 A 
ATOM      8  C   UNL     1     126.808 172.255 152.145  1.00  0.00     0.011 A 
ATOM      9  C   UNL     1     125.749 170.498 153.178  1.00  0.00     0.005 A 
ATOM     10  C   UNL     1     127.416 172.697 153.314  1.00  0.00    -0.022 A 
ATOM     11  C   UNL     1     126.298 170.847 154.390  1.00  0.00     0.001 A 
ATOM     12  C   UNL     1     127.124 171.939 154.450  1.00  0.00     0.006 A 
BRANCH  10  13
ATOM     13  C   UNL     1     128.294 173.876 153.319  1.00  0.00     0.191 C 
BRANCH  13  14
ATOM     14  O   UNL     1     129.453 173.731 154.062  1.00  0.00    -0.392 OA
ATOM     15  H   UNL     1     129.840 174.583 154.360  1.00  0.00     0.211 HD
ENDBRANCH  13  14
ENDBRANCH  10  13
ENDBRANCH   6   7
ENDBRANCH   1   6
BRANCH   1  16
ATOM     16  C   UNL     1     126.818 168.791 149.502  1.00  0.00     0.088 C 
ATOM     17  C   UNL     1     125.854 168.015 148.678  1.00  0.00     0.041 C 
ATOM     18  C   UNL     1     127.127 168.141 150.827  1.00  0.00     0.041 C 
ATOM     19  C   UNL     1     126.140 166.534 148.666  1.00  0.00     0.086 C 
ATOM     20  C   UNL     1     127.320 166.647 150.752  1.00  0.00     0.086 C 
ATOM     21  N   UNL     1     126.346 165.953 149.964  1.00  0.00    -0.303 NA
BRANCH  21  22
ATOM     22  C   UNL     1     125.133 165.649 150.656  1.00  0.00     0.089 C 
BRANCH  22  23
ATOM     23  C   UNL     1     124.065 164.963 149.879  1.00  0.00     0.051 C 
BRANCH  23  24
ATOM     24  C   UNL     1     124.150 163.482 149.889  1.00  0.00    -0.047 A 
ATOM     25  C   UNL     1     123.373 162.811 148.932  1.00  0.00     0.004 A 
ATOM     26  C   UNL     1     124.874 162.632 150.695  1.00  0.00     0.004 A 
ATOM     27  C   UNL     1     123.305 161.445 148.772  1.00  0.00     0.000 A 
ATOM     28  C   UNL     1     124.829 161.279 150.562  1.00  0.00     0.000 A 
ATOM     29  C   UNL     1     124.056 160.652 149.611  1.00  0.00     0.000 A 
ENDBRANCH  23  24
ENDBRANCH  22  23
ENDBRANCH  21  22
ENDBRANCH   1  16
TORSDOF 10
ENDMDL
MODEL 6
REMARK VINA RESULT:    -7.506      3.546      7.771
REMARK INTER + INTRA:         -13.126
REMARK INTER:                 -11.931
REMARK INTRA:                  -1.196
REMARK UNBOUND:                -1.452
REMARK SMILES CCC(=O)N(Cc1cccc(CO)c1)C1CCN(CCc2ccccc2)CC1
REMARK SMILES IDX 5 1 3 2 4 3 2 4 1 5 6 6 7 7 14 8 8 9 11 10 9 11 10 12 12 13
REMARK SMILES IDX 13 14 15 16 16 17 28 18 17 19 27 20 18 21 19 22 20 23 21 24
REMARK SMILES IDX 22 25 26 26 23 27 25 28 24 29
REMARK H PARENT 13 15
REMARK Flexibility Score: inf
ROOT
ATOM      1  N   UNL     1     126.717 168.231 149.517  1.00  0.00    -0.335 N 
ENDROOT
BRANCH   1   2
ATOM      2  C   UNL     1     126.911 169.082 148.400  1.00  0.00     0.222 C 
ATOM      3  O   UNL     1     126.543 169.025 147.204  1.00  0.00    -0.275 OA
BRANCH   2   4
ATOM      4  C   UNL     1     127.567 170.352 148.043  1.00  0.00     0.097 C 
ATOM      5  C   UNL     1     126.519 171.305 147.522  1.00  0.00     0.014 C 
ENDBRANCH   2   4
ENDBRANCH   1   2
BRANCH   1   6
ATOM      6  C   UNL     1     126.559 166.832 149.218  1.00  0.00     0.155 C 
BRANCH   6   7
ATOM      7  C   UNL     1     125.190 166.331 149.185  1.00  0.00    -0.028 A 
ATOM      8  C   UNL     1     124.910 164.962 149.115  1.00  0.00     0.011 A 
ATOM      9  C   UNL     1     124.014 167.075 149.208  1.00  0.00     0.005 A 
ATOM     10  C   UNL     1     123.669 164.337 149.069  1.00  0.00    -0.022 A 
ATOM     11  C   UNL     1     122.737 166.562 149.168  1.00  0.00     0.001 A 
ATOM     12  C   UNL     1     122.574 165.203 149.098  1.00  0.00     0.006 A 
BRANCH  10  13
ATOM     13  C   UNL     1     123.554 162.874 148.995  1.00  0.00     0.191 C 
BRANCH  13  14
ATOM     14  O   UNL     1     124.190 162.191 150.018  1.00  0.00    -0.392 OA
ATOM     15  H   UNL     1     123.643 161.477 150.414  1.00  0.00     0.211 HD
ENDBRANCH  13  14
ENDBRANCH  10  13
ENDBRANCH   6   7
ENDBRANCH   1   6
BRANCH   1  16
ATOM     16  C   UNL     1     126.740 169.186 150.601  1.00  0.00     0.088 C 
ATOM     17  C   UNL     1     127.497 168.613 151.745  1.00  0.00     0.041 C 
ATOM     18  C   UNL     1     125.310 169.525 150.941  1.00  0.00     0.041 C 
ATOM     19  C   UNL     1     127.254 169.344 153.042  1.00  0.00     0.086 C 
ATOM     20  C   UNL     1     125.135 170.179 152.289  1.00  0.00     0.086 C 
ATOM     21  N   UNL     1     125.869 169.567 153.355  1.00  0.00    -0.303 NA
BRANCH  21  22
ATOM     22  C   UNL     1     125.225 168.437 153.945  1.00  0.00     0.089 C 
BRANCH  22  23
ATOM     23  C   UNL     1     124.769 168.577 155.355  1.00  0.00     0.051 C 
BRANCH  23  24
ATOM     24  C   UNL     1     125.455 167.679 156.316  1.00  0.00    -0.047 A 
ATOM     25  C   UNL     1     124.664 166.678 156.900  1.00  0.00     0.004 A 
ATOM     26  C   UNL     1     126.764 167.659 156.747  1.00  0.00     0.004 A 
ATOM     27  C   UNL     1     125.100 165.744 157.814  1.00  0.00     0.000 A 
ATOM     28  C   UNL     1     127.225 166.751 157.648  1.00  0.00     0.000 A 
ATOM     29  C   UNL     1     126.422 165.780 158.202  1.00  0.00     0.000 A 
ENDBRANCH  23  24
ENDBRANCH  22  23
ENDBRANCH  21  22
ENDBRANCH   1  16
TORSDOF 10
ENDMDL
MODEL 7
REMARK VINA RESULT:    -7.488      1.491      2.200
REMARK INTER + INTRA:         -13.098
REMARK INTER:                 -11.747
REMARK INTRA:                  -1.351
REMARK UNBOUND:                -1.452
REMARK SMILES CCC(=O)N(Cc1cccc(CO)c1)C1CCN(CCc2ccccc2)CC1
REMARK SMILES IDX 5 1 3 2 4 3 2 4 1 5 6 6 7 7 14 8 8 9 11 10 9 11 10 12 12 13
REMARK SMILES IDX 13 14 15 16 16 17 28 18 17 19 27 20 18 21 19 22 20 23 21 24
REMARK SMILES IDX 22 25 26 26 23 27 25 28 24 29
REMARK H PARENT 13 15
REMARK Flexibility Score: inf
ROOT
ATOM      1  N   UNL     1     126.192 168.023 151.359  1.00  0.00    -0.335 N 
ENDROOT
BRANCH   1   2
ATOM      2  C   UNL     1     125.922 168.686 152.583  1.00  0.00     0.222 C 
ATOM      3  O   UNL     1     125.116 169.587 152.911  1.00  0.00    -0.275 OA
BRANCH   2   4
ATOM      4  C   UNL     1     126.366 168.699 153.988  1.00  0.00     0.097 C 
ATOM      5  C   UNL     1     125.149 168.634 154.878  1.00  0.00     0.014 C 
ENDBRANCH   2   4
ENDBRANCH   1   2
BRANCH   1   6
ATOM      6  C   UNL     1     127.575 167.981 150.963  1.00  0.00     0.155 C 
BRANCH   6   7
ATOM      7  C   UNL     1     128.164 169.247 150.545  1.00  0.00    -0.028 A 
ATOM      8  C   UNL     1     127.625 169.997 149.494  1.00  0.00     0.011 A 
ATOM      9  C   UNL     1     129.286 169.877 151.075  1.00  0.00     0.005 A 
ATOM     10  C   UNL     1     128.074 171.208 148.979  1.00  0.00    -0.022 A 
ATOM     11  C   UNL     1     129.816 171.073 150.646  1.00  0.00     0.001 A 
ATOM     12  C   UNL     1     129.209 171.727 149.605  1.00  0.00     0.006 A 
BRANCH  10  13
ATOM     13  C   UNL     1     127.384 171.865 147.860  1.00  0.00     0.191 C 
BRANCH  13  14
ATOM     14  O   UNL     1     126.444 171.077 147.217  1.00  0.00    -0.392 OA
ATOM     15  H   UNL     1     126.237 171.376 146.305  1.00  0.00     0.211 HD
ENDBRANCH  13  14
ENDBRANCH  10  13
ENDBRANCH   6   7
ENDBRANCH   1   6
BRANCH   1  16
ATOM     16  C   UNL     1     124.861 167.636 150.953  1.00  0.00     0.088 C 
ATOM     17  C   UNL     1     124.454 166.416 151.701  1.00  0.00     0.041 C 
ATOM     18  C   UNL     1     124.878 167.441 149.458  1.00  0.00     0.041 C 
ATOM     19  C   UNL     1     123.271 165.711 151.087  1.00  0.00     0.086 C 
ATOM     20  C   UNL     1     123.706 166.655 148.924  1.00  0.00     0.086 C 
ATOM     21  N   UNL     1     123.379 165.479 149.672  1.00  0.00    -0.303 NA
BRANCH  21  22
ATOM     22  C   UNL     1     124.157 164.329 149.337  1.00  0.00     0.089 C 
BRANCH  22  23
ATOM     23  C   UNL     1     123.438 163.180 148.722  1.00  0.00     0.051 C 
BRANCH  23  24
ATOM     24  C   UNL     1     124.317 162.068 148.283  1.00  0.00    -0.047 A 
ATOM     25  C   UNL     1     125.290 161.649 149.203  1.00  0.00     0.004 A 
ATOM     26  C   UNL     1     124.345 161.362 147.100  1.00  0.00     0.004 A 
ATOM     27  C   UNL     1     126.205 160.640 148.996  1.00  0.00     0.000 A 
ATOM     28  C   UNL     1     125.236 160.360 146.866  1.00  0.00     0.000 A 
ATOM     29  C   UNL     1     126.178 159.973 147.791  1.00  0.00     0.000 A 
ENDBRANCH  23  24
ENDBRANCH  22  23
ENDBRANCH  21  22
ENDBRANCH   1  16
TORSDOF 10
ENDMDL
MODEL 8
REMARK VINA RESULT:    -7.395      2.009      4.396
REMARK INTER + INTRA:         -12.953
REMARK INTER:                 -11.461
REMARK INTRA:                  -1.492
REMARK UNBOUND:                -1.452
REMARK SMILES CCC(=O)N(Cc1cccc(CO)c1)C1CCN(CCc2ccccc2)CC1
REMARK SMILES IDX 5 1 3 2 4 3 2 4 1 5 6 6 7 7 14 8 8 9 11 10 9 11 10 12 12 13
REMARK SMILES IDX 13 14 15 16 16 17 28 18 17 19 27 20 18 21 19 22 20 23 21 24
REMARK SMILES IDX 22 25 26 26 23 27 25 28 24 29
REMARK H PARENT 13 15
REMARK Flexibility Score: inf
ROOT
ATOM      1  N   UNL     1     126.891 169.975 150.172  1.00  0.00    -0.335 N 
ENDROOT
BRANCH   1   2
ATOM      2  C   UNL     1     128.007 170.679 149.653  1.00  0.00     0.222 C 
ATOM      3  O   UNL     1     129.159 170.328 149.311  1.00  0.00    -0.275 OA
BRANCH   2   4
ATOM      4  C   UNL     1     128.406 172.043 149.266  1.00  0.00     0.097 C 
ATOM      5  C   UNL     1     129.481 172.517 150.214  1.00  0.00     0.014 C 
ENDBRANCH   2   4
ENDBRANCH   1   2
BRANCH   1   6
ATOM      6  C   UNL     1     125.876 170.783 150.795  1.00  0.00     0.155 C 
BRANCH   6   7
ATOM      7  C   UNL     1     126.121 171.169 152.179  1.00  0.00    -0.028 A 
ATOM      8  C   UNL     1     125.730 170.358 153.249  1.00  0.00     0.011 A 
ATOM      9  C   UNL     1     126.734 172.332 152.640  1.00  0.00     0.005 A 
ATOM     10  C   UNL     1     125.886 170.591 154.611  1.00  0.00    -0.022 A 
ATOM     11  C   UNL     1     126.940 172.663 153.959  1.00  0.00     0.001 A 
ATOM     12  C   UNL     1     126.516 171.795 154.932  1.00  0.00     0.006 A 
BRANCH  10  13
ATOM     13  C   UNL     1     125.411 169.624 155.611  1.00  0.00     0.191 C 
BRANCH  13  14
ATOM     14  O   UNL     1     125.816 168.318 155.391  1.00  0.00    -0.392 OA
ATOM     15  H   UNL     1     126.129 167.862 156.202  1.00  0.00     0.211 HD
ENDBRANCH  13  14
ENDBRANCH  10  13
ENDBRANCH   6   7
ENDBRANCH   1   6
BRANCH   1  16
ATOM     16  C   UNL     1     127.252 168.612 149.858  1.00  0.00     0.088 C 
ATOM     17  C   UNL     1     126.293 168.066 148.861  1.00  0.00     0.041 C 
ATOM     18  C   UNL     1     127.275 167.836 151.151  1.00  0.00     0.041 C 
ATOM     19  C   UNL     1     126.336 166.561 148.759  1.00  0.00     0.086 C 
ATOM     20  C   UNL     1     127.233 166.339 150.973  1.00  0.00     0.086 C 
ATOM     21  N   UNL     1     126.272 165.873 150.019  1.00  0.00    -0.303 NA
BRANCH  21  22
ATOM     22  C   UNL     1     124.946 165.736 150.532  1.00  0.00     0.089 C 
BRANCH  22  23
ATOM     23  C   UNL     1     123.972 164.980 149.699  1.00  0.00     0.051 C 
BRANCH  23  24
ATOM     24  C   UNL     1     124.095 163.504 149.795  1.00  0.00    -0.047 A 
ATOM     25  C   UNL     1     123.351 162.761 148.867  1.00  0.00     0.004 A 
ATOM     26  C   UNL     1     124.828 162.721 150.660  1.00  0.00     0.004 A 
ATOM     27  C   UNL     1     123.321 161.386 148.784  1.00  0.00     0.000 A 
ATOM     28  C   UNL     1     124.819 161.362 150.603  1.00  0.00     0.000 A 
ATOM     29  C   UNL     1     124.078 160.662 149.678  1.00  0.00     0.000 A 
ENDBRANCH  23  24
ENDBRANCH  22  23
ENDBRANCH  21  22
ENDBRANCH   1  16
TORSDOF 10
ENDMDL
MODEL 9
REMARK VINA RESULT:    -7.321      3.340      7.480
REMARK INTER + INTRA:         -12.839
REMARK INTER:                 -11.012
REMARK INTRA:                  -1.827
REMARK UNBOUND:                -1.452
REMARK SMILES CCC(=O)N(Cc1cccc(CO)c1)C1CCN(CCc2ccccc2)CC1
REMARK SMILES IDX 5 1 3 2 4 3 2 4 1 5 6 6 7 7 14 8 8 9 11 10 9 11 10 12 12 13
REMARK SMILES IDX 13 14 15 16 16 17 28 18 17 19 27 20 18 21 19 22 20 23 21 24
REMARK SMILES IDX 22 25 26 26 23 27 25 28 24 29
REMARK H PARENT 13 15
REMARK Flexibility Score: inf
ROOT
ATOM      1  N   UNL     1     126.410 169.304 149.057  1.00  0.00    -0.335 N 
ENDROOT
BRANCH   1   2
ATOM      2  C   UNL     1     126.813 170.449 148.325  1.00  0.00     0.222 C 
ATOM      3  O   UNL     1     126.242 171.167 147.473  1.00  0.00    -0.275 OA
BRANCH   2   4
ATOM      4  C   UNL     1     127.975 171.340 148.163  1.00  0.00     0.097 C 
ATOM      5  C   UNL     1     129.230 170.501 148.173  1.00  0.00     0.014 C 
ENDBRANCH   2   4
ENDBRANCH   1   2
BRANCH   1   6
ATOM      6  C   UNL     1     126.060 168.150 148.271  1.00  0.00     0.155 C 
BRANCH   6   7
ATOM      7  C   UNL     1     124.964 167.334 148.778  1.00  0.00    -0.028 A 
ATOM      8  C   UNL     1     125.165 166.363 149.764  1.00  0.00     0.011 A 
ATOM      9  C   UNL     1     123.627 167.373 148.389  1.00  0.00     0.005 A 
ATOM     10  C   UNL     1     124.230 165.509 150.338  1.00  0.00    -0.022 A 
ATOM     11  C   UNL     1     122.621 166.578 148.889  1.00  0.00     0.001 A 
ATOM     12  C   UNL     1     122.928 165.655 149.855  1.00  0.00     0.006 A 
BRANCH  10  13
ATOM     13  C   UNL     1     124.616 164.538 151.371  1.00  0.00     0.191 C 
BRANCH  13  14
ATOM     14  O   UNL     1     124.813 163.248 150.908  1.00  0.00    -0.392 OA
ATOM     15  H   UNL     1     125.054 162.609 151.614  1.00  0.00     0.211 HD
ENDBRANCH  13  14
ENDBRANCH  10  13
ENDBRANCH   6   7
ENDBRANCH   1   6
BRANCH   1  16
ATOM     16  C   UNL     1     126.503 169.794 150.413  1.00  0.00     0.088 C 
ATOM     17  C   UNL     1     127.430 168.926 151.187  1.00  0.00     0.041 C 
ATOM     18  C   UNL     1     125.106 169.831 150.981  1.00  0.00     0.041 C 
ATOM     19  C   UNL     1     127.300 169.103 152.680  1.00  0.00     0.086 C 
ATOM     20  C   UNL     1     125.054 169.925 152.486  1.00  0.00     0.086 C 
ATOM     21  N   UNL     1     125.952 169.048 153.175  1.00  0.00    -0.303 NA
BRANCH  21  22
ATOM     22  C   UNL     1     125.460 167.719 153.354  1.00  0.00     0.089 C 
BRANCH  22  23
ATOM     23  C   UNL     1     123.991 167.558 153.532  1.00  0.00     0.051 C 
BRANCH  23  24
ATOM     24  C   UNL     1     123.527 167.660 154.938  1.00  0.00    -0.047 A 
ATOM     25  C   UNL     1     122.222 168.139 155.125  1.00  0.00     0.004 A 
ATOM     26  C   UNL     1     124.172 167.361 156.118  1.00  0.00     0.004 A 
ATOM     27  C   UNL     1     121.599 168.312 156.342  1.00  0.00     0.000 A 
ATOM     28  C   UNL     1     123.585 167.520 157.335  1.00  0.00     0.000 A 
ATOM     29  C   UNL     1     122.301 167.992 157.484  1.00  0.00     0.000 A 
ENDBRANCH  23  24
ENDBRANCH  22  23
ENDBRANCH  21  22
ENDBRANCH   1  16
TORSDOF 10
ENDMDL
MODEL 10
REMARK VINA RESULT:    -7.286      1.642      2.597
REMARK INTER + INTRA:         -12.784
REMARK INTER:                 -12.569
REMARK INTRA:                  -0.215
REMARK UNBOUND:                -1.452
REMARK SMILES CCC(=O)N(Cc1cccc(CO)c1)C1CCN(CCc2ccccc2)CC1
REMARK SMILES IDX 5 1 3 2 4 3 2 4 1 5 6 6 7 7 14 8 8 9 11 10 9 11 10 12 12 13
REMARK SMILES IDX 13 14 15 16 16 17 28 18 17 19 27 20 18 21 19 22 20 23 21 24
REMARK SMILES IDX 22 25 26 26 23 27 25 28 24 29
REMARK H PARENT 13 15
REMARK Flexibility Score: inf
ROOT
ATOM      1  N   UNL     1     125.149 168.325 150.351  1.00  0.00    -0.335 N 
ENDROOT
BRANCH   1   2
ATOM      2  C   UNL     1     124.746 167.664 149.163  1.00  0.00     0.222 C 
ATOM      3  O   UNL     1     125.125 167.735 147.972  1.00  0.00    -0.275 OA
BRANCH   2   4
ATOM      4  C   UNL     1     123.783 166.649 148.702  1.00  0.00     0.097 C 
ATOM      5  C   UNL     1     122.469 167.331 148.410  1.00  0.00     0.014 C 
ENDBRANCH   2   4
ENDBRANCH   1   2
BRANCH   1   6
ATOM      6  C   UNL     1     125.035 169.760 150.338  1.00  0.00     0.155 C 
BRANCH   6   7
ATOM      7  C   UNL     1     126.187 170.493 149.828  1.00  0.00    -0.028 A 
ATOM      8  C   UNL     1     127.136 171.059 150.685  1.00  0.00     0.011 A 
ATOM      9  C   UNL     1     126.512 170.743 148.497  1.00  0.00     0.005 A 
ATOM     10  C   UNL     1     128.274 171.786 150.353  1.00  0.00    -0.022 A 
ATOM     11  C   UNL     1     127.609 171.448 148.057  1.00  0.00     0.001 A 
ATOM     12  C   UNL     1     128.478 171.963 148.983  1.00  0.00     0.006 A 
BRANCH  10  13
ATOM     13  C   UNL     1     129.172 172.315 151.390  1.00  0.00     0.191 C 
BRANCH  13  14
ATOM     14  O   UNL     1     128.688 173.425 152.063  1.00  0.00    -0.392 OA
ATOM     15  H   UNL     1     127.756 173.330 152.357  1.00  0.00     0.211 HD
ENDBRANCH  13  14
ENDBRANCH  10  13
ENDBRANCH   6   7
ENDBRANCH   1   6
BRANCH   1  16
ATOM     16  C   UNL     1     125.564 167.206 151.164  1.00  0.00     0.088 C 
ATOM     17  C   UNL     1     126.625 166.446 150.451  1.00  0.00     0.041 C 
ATOM     18  C   UNL     1     124.339 166.380 151.465  1.00  0.00     0.041 C 
ATOM     19  C   UNL     1     126.849 165.066 151.017  1.00  0.00     0.086 C 
ATOM     20  C   UNL     1     124.639 164.983 151.949  1.00  0.00     0.086 C 
ATOM     21  N   UNL     1     125.651 164.294 151.206  1.00  0.00    -0.303 NA
BRANCH  21  22
ATOM     22  C   UNL     1     125.183 163.660 150.015  1.00  0.00     0.089 C 
BRANCH  22  23
ATOM     23  C   UNL     1     124.991 162.185 150.064  1.00  0.00     0.051 C 
BRANCH  23  24
ATOM     24  C   UNL     1     125.090 161.508 148.747  1.00  0.00    -0.047 A 
ATOM     25  C   UNL     1     126.099 160.540 148.625  1.00  0.00     0.004 A 
ATOM     26  C   UNL     1     124.349 161.671 147.597  1.00  0.00     0.004 A 
ATOM     27  C   UNL     1     126.364 159.799 147.494  1.00  0.00     0.000 A 
ATOM     28  C   UNL     1     124.586 160.954 146.465  1.00  0.00     0.000 A 
ATOM     29  C   UNL     1     125.584 160.010 146.378  1.00  0.00     0.000 A 
ENDBRANCH  23  24
ENDBRANCH  22  23
ENDBRANCH  21  22
ENDBRANCH   1  16
TORSDOF 10
ENDMDL
