
     RDKit          3D

 60 62  0  0  0  0  0  0  0  0999 V2000
  124.9610  170.9720  151.2770 C   0  0  0  0  0  0  0  0  0  0  0  0
  125.1320  169.8930  152.3190 C   0  0  0  0  0  0  0  0  0  0  0  0
  125.7550  168.7200  151.6820 C   0  0  0  0  0  0  0  0  0  0  0  0
  126.2090  168.4430  152.8160 O   0  0  0  0  0  0  0  0  0  0  0  0
  125.8650  168.0970  150.4140 N   0  0  0  0  0  0  0  0  0  0  0  0
  127.1250  168.2670  149.7400 C   0  0  0  0  0  0  0  0  0  0  0  0
  127.3720  169.5790  149.1560 C   0  0  0  0  0  0  0  0  0  0  0  0
  126.7630  170.1370  148.0350 C   0  0  0  0  0  0  0  0  0  0  0  0
  127.0200  171.3870  147.5180 C   0  0  0  0  0  0  0  0  0  0  0  0
  127.9510  172.1780  148.1390 C   0  0  0  0  0  0  0  0  0  0  0  0
  128.6380  171.7440  149.2740 C   0  0  0  0  0  0  0  0  0  0  0  0
  129.6450  172.5490  149.9800 C   0  0  0  0  0  0  0  0  0  0  0  0
  129.1690  173.2300  151.0880 O   0  0  0  0  0  0  0  0  0  0  0  0
  128.3010  170.4670  149.7090 C   0  0  0  0  0  0  0  0  0  0  0  0
  124.5550  167.5040  150.2820 C   0  0  0  0  0  0  0  0  0  0  0  0
  124.4990  166.2510  151.0810 C   0  0  0  0  0  0  0  0  0  0  0  0
  123.3370  165.3620  150.7120 C   0  0  0  0  0  0  0  0  0  0  0  0
  123.1910  165.1220  149.3020 N   0  0  0  0  0  0  0  0  0  0  0  0
  124.0520  164.0980  148.8020 C   0  0  0  0  0  0  0  0  0  0  0  0
  123.5480  162.6990  148.8650 C   0  0  0  0  0  0  0  0  0  0  0  0
  124.5220  161.6730  148.4170 C   0  0  0  0  0  0  0  0  0  0  0  0
  124.3790  161.2200  147.0960 C   0  0  0  0  0  0  0  0  0  0  0  0
  125.1720  160.2740  146.4850 C   0  0  0  0  0  0  0  0  0  0  0  0
  126.1980  159.7140  147.2130 C   0  0  0  0  0  0  0  0  0  0  0  0
  126.3650  160.1360  148.5120 C   0  0  0  0  0  0  0  0  0  0  0  0
  125.5630  161.0730  149.0890 C   0  0  0  0  0  0  0  0  0  0  0  0
  123.1760  166.3200  148.5170 C   0  0  0  0  0  0  0  0  0  0  0  0
  124.2980  167.2850  148.8120 C   0  0  0  0  0  0  0  0  0  0  0  0
  124.8074  171.9410  151.7744 H   0  0  0  0  0  0  0  0  0  0  0  0
  125.8626  171.0212  150.6487 H   0  0  0  0  0  0  0  0  0  0  0  0
  124.0884  170.7400  150.6487 H   0  0  0  0  0  0  0  0  0  0  0  0
  125.7772  170.2604  153.1307 H   0  0  0  0  0  0  0  0  0  0  0  0
  124.1535  169.6174  152.7391 H   0  0  0  0  0  0  0  0  0  0  0  0
  127.9246  168.0685  150.4689 H   0  0  0  0  0  0  0  0  0  0  0  0
  127.1008  167.5676  148.8913 H   0  0  0  0  0  0  0  0  0  0  0  0
  126.0101  169.5251  147.5167 H   0  0  0  0  0  0  0  0  0  0  0  0
  126.4882  171.7439  146.6237 H   0  0  0  0  0  0  0  0  0  0  0  0
  128.1619  173.1785  147.7335 H   0  0  0  0  0  0  0  0  0  0  0  0
  130.4504  171.8768  150.3110 H   0  0  0  0  0  0  0  0  0  0  0  0
  129.9856  173.3148  149.2675 H   0  0  0  0  0  0  0  0  0  0  0  0
  129.8740  173.6660  151.6150 H   0  0  0  0  0  0  0  0  0  0  0  0
  128.8332  170.1090  150.6027 H   0  0  0  0  0  0  0  0  0  0  0  0
  123.7624  168.1582  150.6742 H   0  0  0  0  0  0  0  0  0  0  0  0
  125.4322  165.6915  150.9196 H   0  0  0  0  0  0  0  0  0  0  0  0
  124.3675  166.5405  152.1340 H   0  0  0  0  0  0  0  0  0  0  0  0
  123.4745  164.3922  151.2127 H   0  0  0  0  0  0  0  0  0  0  0  0
  122.4268  165.8889  151.0344 H   0  0  0  0  0  0  0  0  0  0  0  0
  124.2622  164.3275  147.7469 H   0  0  0  0  0  0  0  0  0  0  0  0
  124.9297  164.1148  149.4649 H   0  0  0  0  0  0  0  0  0  0  0  0
  123.2729  162.4796  149.9072 H   0  0  0  0  0  0  0  0  0  0  0  0
  122.6943  162.6427  148.1736 H   0  0  0  0  0  0  0  0  0  0  0  0
  123.5653  161.6573  146.4987 H   0  0  0  0  0  0  0  0  0  0  0  0
  124.9904  159.9736  145.4425 H   0  0  0  0  0  0  0  0  0  0  0  0
  126.8611  158.9556  146.7714 H   0  0  0  0  0  0  0  0  0  0  0  0
  127.1793  159.6987  149.1084 H   0  0  0  0  0  0  0  0  0  0  0  0
  125.7544  161.3618  150.1330 H   0  0  0  0  0  0  0  0  0  0  0  0
  123.2401  166.0349  147.4565 H   0  0  0  0  0  0  0  0  0  0  0  0
  122.2427  166.8441  148.7704 H   0  0  0  0  0  0  0  0  0  0  0  0
  125.2189  166.8932  148.3555 H   0  0  0  0  0  0  0  0  0  0  0  0
  123.9961  168.2574  148.3957 H   0  0  0  0  0  0  0  0  0  0  0  0
  1  2  1  0
  2  3  1  0
  3  4  2  0
  3  5  1  0
  5  6  1  0
  6  7  1  0
  7  8  2  0
  8  9  1  0
  9 10  2  0
 10 11  1  0
 11 12  1  0
 12 13  1  0
 11 14  2  0
  5 15  1  0
 15 16  1  0
 16 17  1  0
 17 18  1  0
 18 19  1  0
 19 20  1  0
 20 21  1  0
 21 22  2  0
 22 23  1  0
 23 24  2  0
 24 25  1  0
 25 26  2  0
 18 27  1  0
 27 28  1  0
 14  7  1  0
 28 15  1  0
 26 21  1  0
  1 29  1  0
  1 30  1  0
  1 31  1  0
  2 32  1  0
  2 33  1  0
  6 34  1  0
  6 35  1  0
  8 36  1  0
  9 37  1  0
 10 38  1  0
 12 39  1  0
 12 40  1  0
 13 41  1  0
 14 42  1  0
 15 43  1  0
 16 44  1  0
 16 45  1  0
 17 46  1  0
 17 47  1  0
 19 48  1  0
 19 49  1  0
 20 50  1  0
 20 51  1  0
 22 52  1  0
 23 53  1  0
 24 54  1  0
 25 55  1  0
 26 56  1  0
 27 57  1  0
 27 58  1  0
 28 59  1  0
 28 60  1  0
M  END
$$$$

     RDKit          3D

 60 62  0  0  0  0  0  0  0  0999 V2000
  123.0170  168.2160  154.8090 C   0  0  0  0  0  0  0  0  0  0  0  0
  123.9560  169.3400  154.4430 C   0  0  0  0  0  0  0  0  0  0  0  0
  124.9810  168.8140  153.5230 C   0  0  0  0  0  0  0  0  0  0  0  0
  125.6760  168.6030  154.5430 O   0  0  0  0  0  0  0  0  0  0  0  0
  125.1970  168.5990  152.1390 N   0  0  0  0  0  0  0  0  0  0  0  0
  124.9680  169.7350  151.2860 C   0  0  0  0  0  0  0  0  0  0  0  0
  126.0950  170.6400  151.1030 C   0  0  0  0  0  0  0  0  0  0  0  0
  126.5870  171.5770  152.0080 C   0  0  0  0  0  0  0  0  0  0  0  0
  127.6620  172.4110  151.7980 C   0  0  0  0  0  0  0  0  0  0  0  0
  128.3300  172.3380  150.6040 C   0  0  0  0  0  0  0  0  0  0  0  0
  127.9430  171.4430  149.6040 C   0  0  0  0  0  0  0  0  0  0  0  0
  128.6220  171.3210  148.3060 C   0  0  0  0  0  0  0  0  0  0  0  0
  128.9950  170.0310  147.9670 O   0  0  0  0  0  0  0  0  0  0  0  0
  126.8460  170.6500  149.9220 C   0  0  0  0  0  0  0  0  0  0  0  0
  125.5770  167.2050  152.1310 C   0  0  0  0  0  0  0  0  0  0  0  0
  126.5940  166.9790  151.0690 C   0  0  0  0  0  0  0  0  0  0  0  0
  126.7670  165.5230  150.7150 C   0  0  0  0  0  0  0  0  0  0  0  0
  125.5410  164.8170  150.4630 N   0  0  0  0  0  0  0  0  0  0  0  0
  125.0280  165.0110  149.1440 C   0  0  0  0  0  0  0  0  0  0  0  0
  123.9020  164.1350  148.7200 C   0  0  0  0  0  0  0  0  0  0  0  0
  124.2510  162.6980  148.5980 C   0  0  0  0  0  0  0  0  0  0  0  0
  123.2800  161.7870  149.0420 C   0  0  0  0  0  0  0  0  0  0  0  0
  123.4020  160.4150  149.0210 C   0  0  0  0  0  0  0  0  0  0  0  0
  124.5670  159.8710  148.5260 C   0  0  0  0  0  0  0  0  0  0  0  0
  125.5400  160.7380  148.0840 C   0  0  0  0  0  0  0  0  0  0  0  0
  125.3900  162.0900  148.1180 C   0  0  0  0  0  0  0  0  0  0  0  0
  124.5710  164.9670  151.5050 C   0  0  0  0  0  0  0  0  0  0  0  0
  124.3230  166.3910  151.9390 C   0  0  0  0  0  0  0  0  0  0  0  0
  122.9501  168.1360  155.9041 H   0  0  0  0  0  0  0  0  0  0  0  0
  122.0191  168.4223  154.3948 H   0  0  0  0  0  0  0  0  0  0  0  0
  123.3976  167.2707  154.3948 H   0  0  0  0  0  0  0  0  0  0  0  0
  123.3941  170.1469  153.9499 H   0  0  0  0  0  0  0  0  0  0  0  0
  124.4337  169.7414  155.3489 H   0  0  0  0  0  0  0  0  0  0  0  0
  124.6768  169.3571  150.2949 H   0  0  0  0  0  0  0  0  0  0  0  0
  124.1920  170.3297  151.7900 H   0  0  0  0  0  0  0  0  0  0  0  0
  126.0712  171.6579  152.9762 H   0  0  0  0  0  0  0  0  0  0  0  0
  127.9788  173.1228  152.5745 H   0  0  0  0  0  0  0  0  0  0  0  0
  129.1911  172.9997  150.4289 H   0  0  0  0  0  0  0  0  0  0  0  0
  127.9423  171.6970  147.5271 H   0  0  0  0  0  0  0  0  0  0  0  0
  129.5523  171.9025  148.3862 H   0  0  0  0  0  0  0  0  0  0  0  0
  128.7590  169.7830  147.0460 H   0  0  0  0  0  0  0  0  0  0  0  0
  126.5274  169.9390  149.1455 H   0  0  0  0  0  0  0  0  0  0  0  0
  126.0432  166.8958  153.0781 H   0  0  0  0  0  0  0  0  0  0  0  0
  126.2837  167.5244  150.1655 H   0  0  0  0  0  0  0  0  0  0  0  0
  127.5584  167.3389  151.4568 H   0  0  0  0  0  0  0  0  0  0  0  0
  127.3898  165.4619  149.8104 H   0  0  0  0  0  0  0  0  0  0  0  0
  127.2279  165.0428  151.5907 H   0  0  0  0  0  0  0  0  0  0  0  0
  124.6826  166.0529  149.0725 H   0  0  0  0  0  0  0  0  0  0  0  0
  125.8601  164.7504  148.4733 H   0  0  0  0  0  0  0  0  0  0  0  0
  123.0948  164.2305  149.4611 H   0  0  0  0  0  0  0  0  0  0  0  0
  123.6063  164.4709  147.7152 H   0  0  0  0  0  0  0  0  0  0  0  0
  122.3430  162.2035  149.4402 H   0  0  0  0  0  0  0  0  0  0  0  0
  122.5904  159.7706  149.3898 H   0  0  0  0  0  0  0  0  0  0  0  0
  124.7143  158.7817  148.4855 H   0  0  0  0  0  0  0  0  0  0  0  0
  126.4773  160.3210  147.6870 H   0  0  0  0  0  0  0  0  0  0  0  0
  126.2105  162.7222  147.7476 H   0  0  0  0  0  0  0  0  0  0  0  0
  123.6187  164.5470  151.1490 H   0  0  0  0  0  0  0  0  0  0  0  0
  124.9759  164.4420  152.3827 H   0  0  0  0  0  0  0  0  0  0  0  0
  123.7062  166.8829  151.1724 H   0  0  0  0  0  0  0  0  0  0  0  0
  123.8251  166.3411  152.9186 H   0  0  0  0  0  0  0  0  0  0  0  0
  1  2  1  0
  2  3  1  0
  3  4  2  0
  3  5  1  0
  5  6  1  0
  6  7  1  0
  7  8  2  0
  8  9  1  0
  9 10  2  0
 10 11  1  0
 11 12  1  0
 12 13  1  0
 11 14  2  0
  5 15  1  0
 15 16  1  0
 16 17  1  0
 17 18  1  0
 18 19  1  0
 19 20  1  0
 20 21  1  0
 21 22  2  0
 22 23  1  0
 23 24  2  0
 24 25  1  0
 25 26  2  0
 18 27  1  0
 27 28  1  0
 14  7  1  0
 28 15  1  0
 26 21  1  0
  1 29  1  0
  1 30  1  0
  1 31  1  0
  2 32  1  0
  2 33  1  0
  6 34  1  0
  6 35  1  0
  8 36  1  0
  9 37  1  0
 10 38  1  0
 12 39  1  0
 12 40  1  0
 13 41  1  0
 14 42  1  0
 15 43  1  0
 16 44  1  0
 16 45  1  0
 17 46  1  0
 17 47  1  0
 19 48  1  0
 19 49  1  0
 20 50  1  0
 20 51  1  0
 22 52  1  0
 23 53  1  0
 24 54  1  0
 25 55  1  0
 26 56  1  0
 27 57  1  0
 27 58  1  0
 28 59  1  0
 28 60  1  0
M  END
$$$$

     RDKit          3D

 60 62  0  0  0  0  0  0  0  0999 V2000
  123.5950  169.0720  154.5830 C   0  0  0  0  0  0  0  0  0  0  0  0
  124.9750  169.6700  154.4580 C   0  0  0  0  0  0  0  0  0  0  0  0
  125.6650  169.0290  153.3250 C   0  0  0  0  0  0  0  0  0  0  0  0
  126.6800  169.0040  154.0570 O   0  0  0  0  0  0  0  0  0  0  0  0
  125.4140  168.5980  151.9980 N   0  0  0  0  0  0  0  0  0  0  0  0
  125.0480  169.6290  151.0630 C   0  0  0  0  0  0  0  0  0  0  0  0
  126.1190  170.1360  150.2130 C   0  0  0  0  0  0  0  0  0  0  0  0
  126.3890  169.7890  148.8920 C   0  0  0  0  0  0  0  0  0  0  0  0
  127.4090  170.2980  148.1200 C   0  0  0  0  0  0  0  0  0  0  0  0
  128.2500  171.2310  148.6690 C   0  0  0  0  0  0  0  0  0  0  0  0
  128.0940  171.6690  149.9850 C   0  0  0  0  0  0  0  0  0  0  0  0
  128.9640  172.6660  150.6250 C   0  0  0  0  0  0  0  0  0  0  0  0
  129.8720  173.2730  149.7730 O   0  0  0  0  0  0  0  0  0  0  0  0
  127.0330  171.0900  150.6730 C   0  0  0  0  0  0  0  0  0  0  0  0
  125.6250  167.1740  152.1240 C   0  0  0  0  0  0  0  0  0  0  0  0
  126.7210  166.7570  151.2100 C   0  0  0  0  0  0  0  0  0  0  0  0
  126.7610  165.2680  150.9720 C   0  0  0  0  0  0  0  0  0  0  0  0
  125.4960  164.6830  150.6190 N   0  0  0  0  0  0  0  0  0  0  0  0
  125.1620  164.8300  149.2380 C   0  0  0  0  0  0  0  0  0  0  0  0
  123.9590  164.1000  148.7510 C   0  0  0  0  0  0  0  0  0  0  0  0
  124.1100  162.6250  148.7080 C   0  0  0  0  0  0  0  0  0  0  0  0
  125.3240  162.1430  148.1930 C   0  0  0  0  0  0  0  0  0  0  0  0
  125.6660  160.8150  148.0630 C   0  0  0  0  0  0  0  0  0  0  0  0
  124.7550  159.8640  148.4670 C   0  0  0  0  0  0  0  0  0  0  0  0
  123.5550  160.3040  148.9760 C   0  0  0  0  0  0  0  0  0  0  0  0
  123.2450  161.6240  149.0910 C   0  0  0  0  0  0  0  0  0  0  0  0
  124.4390  165.0190  151.5240 C   0  0  0  0  0  0  0  0  0  0  0  0
  124.3130  166.4900  151.8340 C   0  0  0  0  0  0  0  0  0  0  0  0
  123.3385  168.9609  155.6469 H   0  0  0  0  0  0  0  0  0  0  0  0
  122.8632  169.7337  154.0966 H   0  0  0  0  0  0  0  0  0  0  0  0
  123.5774  168.0855  154.0966 H   0  0  0  0  0  0  0  0  0  0  0  0
  124.8949  170.7523  154.2786 H   0  0  0  0  0  0  0  0  0  0  0  0
  125.5419  169.5033  155.3858 H   0  0  0  0  0  0  0  0  0  0  0  0
  124.2623  169.2246  150.4079 H   0  0  0  0  0  0  0  0  0  0  0  0
  124.7292  170.4842  151.6771 H   0  0  0  0  0  0  0  0  0  0  0  0
  125.7298  169.0430  148.4242 H   0  0  0  0  0  0  0  0  0  0  0  0
  127.5466  169.9622  147.0816 H   0  0  0  0  0  0  0  0  0  0  0  0
  129.0665  171.6439  148.0584 H   0  0  0  0  0  0  0  0  0  0  0  0
  128.3257  173.4492  151.0600 H   0  0  0  0  0  0  0  0  0  0  0  0
  129.5570  172.1245  151.3768 H   0  0  0  0  0  0  0  0  0  0  0  0
  130.5400  173.8230  150.2380 H   0  0  0  0  0  0  0  0  0  0  0  0
  126.8949  171.4250  151.7116 H   0  0  0  0  0  0  0  0  0  0  0  0
  125.9414  166.8890  153.1382 H   0  0  0  0  0  0  0  0  0  0  0  0
  126.5812  167.2622  150.2429 H   0  0  0  0  0  0  0  0  0  0  0  0
  127.6708  167.0375  151.6887 H   0  0  0  0  0  0  0  0  0  0  0  0
  127.4702  165.0704  150.1547 H   0  0  0  0  0  0  0  0  0  0  0  0
  127.0613  164.8084  151.9252 H   0  0  0  0  0  0  0  0  0  0  0  0
  124.9992  165.9012  149.0484 H   0  0  0  0  0  0  0  0  0  0  0  0
  126.0064  164.3848  148.6914 H   0  0  0  0  0  0  0  0  0  0  0  0
  123.1180  164.3400  149.4182 H   0  0  0  0  0  0  0  0  0  0  0  0
  123.7926  164.4278  147.7142 H   0  0  0  0  0  0  0  0  0  0  0  0
  126.0640  162.8883  147.8659 H   0  0  0  0  0  0  0  0  0  0  0  0
  126.6413  160.5215  147.6474 H   0  0  0  0  0  0  0  0  0  0  0  0
  124.9792  158.7902  148.3855 H   0  0  0  0  0  0  0  0  0  0  0  0
  122.8158  159.5582  149.3035 H   0  0  0  0  0  0  0  0  0  0  0  0
  122.2652  161.9025  149.5061 H   0  0  0  0  0  0  0  0  0  0  0  0
  123.4902  164.6802  151.0824 H   0  0  0  0  0  0  0  0  0  0  0  0
  124.6777  164.5221  152.4759 H   0  0  0  0  0  0  0  0  0  0  0  0
  123.8487  166.9865  150.9692 H   0  0  0  0  0  0  0  0  0  0  0  0
  123.7055  166.5701  152.7475 H   0  0  0  0  0  0  0  0  0  0  0  0
  1  2  1  0
  2  3  1  0
  3  4  2  0
  3  5  1  0
  5  6  1  0
  6  7  1  0
  7  8  2  0
  8  9  1  0
  9 10  2  0
 10 11  1  0
 11 12  1  0
 12 13  1  0
 11 14  2  0
  5 15  1  0
 15 16  1  0
 16 17  1  0
 17 18  1  0
 18 19  1  0
 19 20  1  0
 20 21  1  0
 21 22  2  0
 22 23  1  0
 23 24  2  0
 24 25  1  0
 25 26  2  0
 18 27  1  0
 27 28  1  0
 14  7  1  0
 28 15  1  0
 26 21  1  0
  1 29  1  0
  1 30  1  0
  1 31  1  0
  2 32  1  0
  2 33  1  0
  6 34  1  0
  6 35  1  0
  8 36  1  0
  9 37  1  0
 10 38  1  0
 12 39  1  0
 12 40  1  0
 13 41  1  0
 14 42  1  0
 15 43  1  0
 16 44  1  0
 16 45  1  0
 17 46  1  0
 17 47  1  0
 19 48  1  0
 19 49  1  0
 20 50  1  0
 20 51  1  0
 22 52  1  0
 23 53  1  0
 24 54  1  0
 25 55  1  0
 26 56  1  0
 27 57  1  0
 27 58  1  0
 28 59  1  0
 28 60  1  0
M  END
$$$$

     RDKit          3D

 60 62  0  0  0  0  0  0  0  0999 V2000
  127.6660  171.9140  147.9960 C   0  0  0  0  0  0  0  0  0  0  0  0
  126.8910  170.6190  148.0240 C   0  0  0  0  0  0  0  0  0  0  0  0
  127.6420  169.6400  148.8290 C   0  0  0  0  0  0  0  0  0  0  0  0
  128.5130  169.6850  147.9310 O   0  0  0  0  0  0  0  0  0  0  0  0
  127.5380  168.9190  150.0450 N   0  0  0  0  0  0  0  0  0  0  0  0
  128.6620  169.0280  150.9360 C   0  0  0  0  0  0  0  0  0  0  0  0
  129.0380  170.3790  151.3360 C   0  0  0  0  0  0  0  0  0  0  0  0
  130.2630  171.0120  151.1400 C   0  0  0  0  0  0  0  0  0  0  0  0
  130.5760  172.2950  151.5280 C   0  0  0  0  0  0  0  0  0  0  0  0
  129.6200  173.0440  152.1630 C   0  0  0  0  0  0  0  0  0  0  0  0
  128.3470  172.5330  152.4240 C   0  0  0  0  0  0  0  0  0  0  0  0
  127.2840  173.2900  153.1010 C   0  0  0  0  0  0  0  0  0  0  0  0
  127.0000  174.5210  152.5350 O   0  0  0  0  0  0  0  0  0  0  0  0
  128.1400  171.2280  151.9910 C   0  0  0  0  0  0  0  0  0  0  0  0
  126.2450  168.2950  149.8880 C   0  0  0  0  0  0  0  0  0  0  0  0
  125.7150  167.9160  151.2250 C   0  0  0  0  0  0  0  0  0  0  0  0
  124.5790  166.9260  151.1550 C   0  0  0  0  0  0  0  0  0  0  0  0
  124.8290  165.7840  150.3190 N   0  0  0  0  0  0  0  0  0  0  0  0
  125.5960  164.7620  150.9570 C   0  0  0  0  0  0  0  0  0  0  0  0
  124.9150  163.4630  151.2110 C   0  0  0  0  0  0  0  0  0  0  0  0
  124.7920  162.5900  150.0170 C   0  0  0  0  0  0  0  0  0  0  0  0
  125.8510  161.6970  149.7930 C   0  0  0  0  0  0  0  0  0  0  0  0
  125.9370  160.8050  148.7470 C   0  0  0  0  0  0  0  0  0  0  0  0
  124.9060  160.7700  147.8330 C   0  0  0  0  0  0  0  0  0  0  0  0
  123.8520  161.6340  148.0250 C   0  0  0  0  0  0  0  0  0  0  0  0
  123.7970  162.5050  149.0680 C   0  0  0  0  0  0  0  0  0  0  0  0
  125.2780  166.1280  149.0030 C   0  0  0  0  0  0  0  0  0  0  0  0
  126.4140  167.1190  148.9590 C   0  0  0  0  0  0  0  0  0  0  0  0
  127.8641  172.2451  149.0261 H   0  0  0  0  0  0  0  0  0  0  0  0
  128.6200  171.7591  147.4707 H   0  0  0  0  0  0  0  0  0  0  0  0
  127.0786  172.6815  147.4707 H   0  0  0  0  0  0  0  0  0  0  0  0
  125.9019  170.7886  148.4745 H   0  0  0  0  0  0  0  0  0  0  0  0
  126.7556  170.2395  147.0005 H   0  0  0  0  0  0  0  0  0  0  0  0
  128.4230  168.4621  151.8485 H   0  0  0  0  0  0  0  0  0  0  0  0
  129.5227  168.6374  150.3732 H   0  0  0  0  0  0  0  0  0  0  0  0
  131.0495  170.4360  150.6304 H   0  0  0  0  0  0  0  0  0  0  0  0
  131.5751  172.7115  151.3320 H   0  0  0  0  0  0  0  0  0  0  0  0
  129.8610  174.0712  152.4742 H   0  0  0  0  0  0  0  0  0  0  0  0
  126.3662  172.6840  153.0815 H   0  0  0  0  0  0  0  0  0  0  0  0
  127.6473  173.4927  154.1193 H   0  0  0  0  0  0  0  0  0  0  0  0
  127.7720  175.1290  152.5070 H   0  0  0  0  0  0  0  0  0  0  0  0
  127.1421  170.8097  152.1890 H   0  0  0  0  0  0  0  0  0  0  0  0
  125.5065  168.9785  149.4437 H   0  0  0  0  0  0  0  0  0  0  0  0
  126.5319  167.4699  151.8113 H   0  0  0  0  0  0  0  0  0  0  0  0
  125.3228  168.8311  151.6926 H   0  0  0  0  0  0  0  0  0  0  0  0
  124.3744  166.5664  152.1742 H   0  0  0  0  0  0  0  0  0  0  0  0
  123.7285  167.4599  150.7059 H   0  0  0  0  0  0  0  0  0  0  0  0
  126.4710  164.5590  150.3221 H   0  0  0  0  0  0  0  0  0  0  0  0
  125.8288  165.1616  151.9551 H   0  0  0  0  0  0  0  0  0  0  0  0
  125.4869  162.9190  151.9772 H   0  0  0  0  0  0  0  0  0  0  0  0
  123.8902  163.7036  151.5302 H   0  0  0  0  0  0  0  0  0  0  0  0
  126.6823  161.7105  150.5133 H   0  0  0  0  0  0  0  0  0  0  0  0
  126.8057  160.1381  148.6438 H   0  0  0  0  0  0  0  0  0  0  0  0
  124.9249  160.0758  146.9799 H   0  0  0  0  0  0  0  0  0  0  0  0
  123.0201  161.6194  147.3054 H   0  0  0  0  0  0  0  0  0  0  0  0
  122.9236  163.1678  149.1574 H   0  0  0  0  0  0  0  0  0  0  0  0
  125.6093  165.2059  148.5030 H   0  0  0  0  0  0  0  0  0  0  0  0
  124.4263  166.6123  148.5030 H   0  0  0  0  0  0  0  0  0  0  0  0
  127.3409  166.5936  149.2327 H   0  0  0  0  0  0  0  0  0  0  0  0
  126.4399  167.5248  147.9369 H   0  0  0  0  0  0  0  0  0  0  0  0
  1  2  1  0
  2  3  1  0
  3  4  2  0
  3  5  1  0
  5  6  1  0
  6  7  1  0
  7  8  2  0
  8  9  1  0
  9 10  2  0
 10 11  1  0
 11 12  1  0
 12 13  1  0
 11 14  2  0
  5 15  1  0
 15 16  1  0
 16 17  1  0
 17 18  1  0
 18 19  1  0
 19 20  1  0
 20 21  1  0
 21 22  2  0
 22 23  1  0
 23 24  2  0
 24 25  1  0
 25 26  2  0
 18 27  1  0
 27 28  1  0
 14  7  1  0
 28 15  1  0
 26 21  1  0
  1 29  1  0
  1 30  1  0
  1 31  1  0
  2 32  1  0
  2 33  1  0
  6 34  1  0
  6 35  1  0
  8 36  1  0
  9 37  1  0
 10 38  1  0
 12 39  1  0
 12 40  1  0
 13 41  1  0
 14 42  1  0
 15 43  1  0
 16 44  1  0
 16 45  1  0
 17 46  1  0
 17 47  1  0
 19 48  1  0
 19 49  1  0
 20 50  1  0
 20 51  1  0
 22 52  1  0
 23 53  1  0
 24 54  1  0
 25 55  1  0
 26 56  1  0
 27 57  1  0
 27 58  1  0
 28 59  1  0
 28 60  1  0
M  END
$$$$

     RDKit          3D

 60 62  0  0  0  0  0  0  0  0999 V2000
  129.0630  171.4430  149.6410 C   0  0  0  0  0  0  0  0  0  0  0  0
  128.1880  171.4630  148.4120 C   0  0  0  0  0  0  0  0  0  0  0  0
  126.8830  170.8700  148.7550 C   0  0  0  0  0  0  0  0  0  0  0  0
  126.4660  171.3580  147.6800 O   0  0  0  0  0  0  0  0  0  0  0  0
  126.2690  170.1000  149.7740 N   0  0  0  0  0  0  0  0  0  0  0  0
  125.4000  170.8210  150.6660 C   0  0  0  0  0  0  0  0  0  0  0  0
  125.9540  171.1610  151.9710 C   0  0  0  0  0  0  0  0  0  0  0  0
  125.7490  170.4980  153.1780 C   0  0  0  0  0  0  0  0  0  0  0  0
  126.2980  170.8470  154.3900 C   0  0  0  0  0  0  0  0  0  0  0  0
  127.1240  171.9390  154.4500 C   0  0  0  0  0  0  0  0  0  0  0  0
  127.4160  172.6970  153.3140 C   0  0  0  0  0  0  0  0  0  0  0  0
  128.2940  173.8760  153.3190 C   0  0  0  0  0  0  0  0  0  0  0  0
  129.4530  173.7310  154.0620 O   0  0  0  0  0  0  0  0  0  0  0  0
  126.8080  172.2550  152.1450 C   0  0  0  0  0  0  0  0  0  0  0  0
  126.8180  168.7910  149.5020 C   0  0  0  0  0  0  0  0  0  0  0  0
  125.8540  168.0150  148.6780 C   0  0  0  0  0  0  0  0  0  0  0  0
  126.1400  166.5340  148.6660 C   0  0  0  0  0  0  0  0  0  0  0  0
  126.3460  165.9530  149.9640 N   0  0  0  0  0  0  0  0  0  0  0  0
  125.1330  165.6490  150.6560 C   0  0  0  0  0  0  0  0  0  0  0  0
  124.0650  164.9630  149.8790 C   0  0  0  0  0  0  0  0  0  0  0  0
  124.1500  163.4820  149.8890 C   0  0  0  0  0  0  0  0  0  0  0  0
  123.3730  162.8110  148.9320 C   0  0  0  0  0  0  0  0  0  0  0  0
  123.3050  161.4450  148.7720 C   0  0  0  0  0  0  0  0  0  0  0  0
  124.0560  160.6520  149.6110 C   0  0  0  0  0  0  0  0  0  0  0  0
  124.8290  161.2790  150.5620 C   0  0  0  0  0  0  0  0  0  0  0  0
  124.8740  162.6320  150.6950 C   0  0  0  0  0  0  0  0  0  0  0  0
  127.3200  166.6470  150.7520 C   0  0  0  0  0  0  0  0  0  0  0  0
  127.1270  168.1410  150.8270 C   0  0  0  0  0  0  0  0  0  0  0  0
  128.4311  171.4574  150.5413 H   0  0  0  0  0  0  0  0  0  0  0  0
  129.6774  170.5306  149.6389 H   0  0  0  0  0  0  0  0  0  0  0  0
  129.7184  172.3264  149.6389 H   0  0  0  0  0  0  0  0  0  0  0  0
  128.0466  172.5003  148.0745 H   0  0  0  0  0  0  0  0  0  0  0  0
  128.6620  170.8871  147.6035 H   0  0  0  0  0  0  0  0  0  0  0  0
  125.1127  171.7592  150.1688 H   0  0  0  0  0  0  0  0  0  0  0  0
  124.5601  170.1410  150.8714 H   0  0  0  0  0  0  0  0  0  0  0  0
  125.0899  169.6175  153.1609 H   0  0  0  0  0  0  0  0  0  0  0  0
  126.0781  170.2605  155.2943 H   0  0  0  0  0  0  0  0  0  0  0  0
  127.5672  172.2250  155.4153 H   0  0  0  0  0  0  0  0  0  0  0  0
  128.5787  174.0956  152.2794 H   0  0  0  0  0  0  0  0  0  0  0  0
  127.7215  174.6877  153.7916 H   0  0  0  0  0  0  0  0  0  0  0  0
  129.8400  174.5830  154.3600 H   0  0  0  0  0  0  0  0  0  0  0  0
  127.0265  172.8410  151.2401 H   0  0  0  0  0  0  0  0  0  0  0  0
  127.7506  168.8446  148.9212 H   0  0  0  0  0  0  0  0  0  0  0  0
  124.8429  168.1726  149.0816 H   0  0  0  0  0  0  0  0  0  0  0  0
  125.9460  168.3741  147.6423 H   0  0  0  0  0  0  0  0  0  0  0  0
  125.2876  166.0240  148.1934 H   0  0  0  0  0  0  0  0  0  0  0  0
  127.0821  166.4034  148.1134 H   0  0  0  0  0  0  0  0  0  0  0  0
  125.3903  165.0029  151.5083 H   0  0  0  0  0  0  0  0  0  0  0  0
  124.7062  166.6260  150.9267 H   0  0  0  0  0  0  0  0  0  0  0  0
  123.0921  165.2539  150.3018 H   0  0  0  0  0  0  0  0  0  0  0  0
  124.1906  165.2759  148.8320 H   0  0  0  0  0  0  0  0  0  0  0  0
  122.7672  163.4284  148.2524 H   0  0  0  0  0  0  0  0  0  0  0  0
  122.6675  160.9989  147.9944 H   0  0  0  0  0  0  0  0  0  0  0  0
  124.0387  159.5556  149.5242 H   0  0  0  0  0  0  0  0  0  0  0  0
  125.4345  160.6612  151.2415 H   0  0  0  0  0  0  0  0  0  0  0  0
  125.5144  163.0645  151.4778 H   0  0  0  0  0  0  0  0  0  0  0  0
  127.2810  166.2454  151.7753 H   0  0  0  0  0  0  0  0  0  0  0  0
  128.2894  166.4851  150.2580 H   0  0  0  0  0  0  0  0  0  0  0  0
  126.2940  168.3472  151.5151 H   0  0  0  0  0  0  0  0  0  0  0  0
  128.0806  168.5662  151.1732 H   0  0  0  0  0  0  0  0  0  0  0  0
  1  2  1  0
  2  3  1  0
  3  4  2  0
  3  5  1  0
  5  6  1  0
  6  7  1  0
  7  8  2  0
  8  9  1  0
  9 10  2  0
 10 11  1  0
 11 12  1  0
 12 13  1  0
 11 14  2  0
  5 15  1  0
 15 16  1  0
 16 17  1  0
 17 18  1  0
 18 19  1  0
 19 20  1  0
 20 21  1  0
 21 22  2  0
 22 23  1  0
 23 24  2  0
 24 25  1  0
 25 26  2  0
 18 27  1  0
 27 28  1  0
 14  7  1  0
 28 15  1  0
 26 21  1  0
  1 29  1  0
  1 30  1  0
  1 31  1  0
  2 32  1  0
  2 33  1  0
  6 34  1  0
  6 35  1  0
  8 36  1  0
  9 37  1  0
 10 38  1  0
 12 39  1  0
 12 40  1  0
 13 41  1  0
 14 42  1  0
 15 43  1  0
 16 44  1  0
 16 45  1  0
 17 46  1  0
 17 47  1  0
 19 48  1  0
 19 49  1  0
 20 50  1  0
 20 51  1  0
 22 52  1  0
 23 53  1  0
 24 54  1  0
 25 55  1  0
 26 56  1  0
 27 57  1  0
 27 58  1  0
 28 59  1  0
 28 60  1  0
M  END
$$$$

     RDKit          3D

 60 62  0  0  0  0  0  0  0  0999 V2000
  126.5190  171.3050  147.5220 C   0  0  0  0  0  0  0  0  0  0  0  0
  127.5670  170.3520  148.0430 C   0  0  0  0  0  0  0  0  0  0  0  0
  126.9110  169.0820  148.4000 C   0  0  0  0  0  0  0  0  0  0  0  0
  126.5430  169.0250  147.2040 O   0  0  0  0  0  0  0  0  0  0  0  0
  126.7170  168.2310  149.5170 N   0  0  0  0  0  0  0  0  0  0  0  0
  126.5590  166.8320  149.2180 C   0  0  0  0  0  0  0  0  0  0  0  0
  125.1900  166.3310  149.1850 C   0  0  0  0  0  0  0  0  0  0  0  0
  124.0140  167.0750  149.2080 C   0  0  0  0  0  0  0  0  0  0  0  0
  122.7370  166.5620  149.1680 C   0  0  0  0  0  0  0  0  0  0  0  0
  122.5740  165.2030  149.0980 C   0  0  0  0  0  0  0  0  0  0  0  0
  123.6690  164.3370  149.0690 C   0  0  0  0  0  0  0  0  0  0  0  0
  123.5540  162.8740  148.9950 C   0  0  0  0  0  0  0  0  0  0  0  0
  124.1900  162.1910  150.0180 O   0  0  0  0  0  0  0  0  0  0  0  0
  124.9100  164.9620  149.1150 C   0  0  0  0  0  0  0  0  0  0  0  0
  126.7400  169.1860  150.6010 C   0  0  0  0  0  0  0  0  0  0  0  0
  127.4970  168.6130  151.7450 C   0  0  0  0  0  0  0  0  0  0  0  0
  127.2540  169.3440  153.0420 C   0  0  0  0  0  0  0  0  0  0  0  0
  125.8690  169.5670  153.3550 N   0  0  0  0  0  0  0  0  0  0  0  0
  125.2250  168.4370  153.9450 C   0  0  0  0  0  0  0  0  0  0  0  0
  124.7690  168.5770  155.3550 C   0  0  0  0  0  0  0  0  0  0  0  0
  125.4550  167.6790  156.3160 C   0  0  0  0  0  0  0  0  0  0  0  0
  124.6640  166.6780  156.9000 C   0  0  0  0  0  0  0  0  0  0  0  0
  125.1000  165.7440  157.8140 C   0  0  0  0  0  0  0  0  0  0  0  0
  126.4220  165.7800  158.2020 C   0  0  0  0  0  0  0  0  0  0  0  0
  127.2250  166.7510  157.6480 C   0  0  0  0  0  0  0  0  0  0  0  0
  126.7640  167.6590  156.7470 C   0  0  0  0  0  0  0  0  0  0  0  0
  125.1350  170.1790  152.2890 C   0  0  0  0  0  0  0  0  0  0  0  0
  125.3100  169.5250  150.9410 C   0  0  0  0  0  0  0  0  0  0  0  0
  125.9995  171.7774  148.3688 H   0  0  0  0  0  0  0  0  0  0  0  0
  127.0011  172.0806  146.9088 H   0  0  0  0  0  0  0  0  0  0  0  0
  125.7926  170.7516  146.9088 H   0  0  0  0  0  0  0  0  0  0  0  0
  128.3240  170.1724  147.2654 H   0  0  0  0  0  0  0  0  0  0  0  0
  128.0600  170.7821  148.9273 H   0  0  0  0  0  0  0  0  0  0  0  0
  127.0079  166.6471  148.2309 H   0  0  0  0  0  0  0  0  0  0  0  0
  127.0481  166.2972  150.0455 H   0  0  0  0  0  0  0  0  0  0  0  0
  124.1136  168.1691  149.2630 H   0  0  0  0  0  0  0  0  0  0  0  0
  121.8637  167.2305  149.1918 H   0  0  0  0  0  0  0  0  0  0  0  0
  121.5572  164.7848  149.0639 H   0  0  0  0  0  0  0  0  0  0  0  0
  122.4858  162.6125  149.0208 H   0  0  0  0  0  0  0  0  0  0  0  0
  124.0516  162.5701  148.0623 H   0  0  0  0  0  0  0  0  0  0  0  0
  123.6430  161.4770  150.4140 H   0  0  0  0  0  0  0  0  0  0  0  0
  125.7840  164.2944  149.0936 H   0  0  0  0  0  0  0  0  0  0  0  0
  127.2554  170.1174  150.3237 H   0  0  0  0  0  0  0  0  0  0  0  0
  127.1955  167.5630  151.8733 H   0  0  0  0  0  0  0  0  0  0  0  0
  128.5674  168.7089  151.5105 H   0  0  0  0  0  0  0  0  0  0  0  0
  127.6987  168.7536  153.8567 H   0  0  0  0  0  0  0  0  0  0  0  0
  127.7111  170.3381  152.9289 H   0  0  0  0  0  0  0  0  0  0  0  0
  124.3419  168.2016  153.3328 H   0  0  0  0  0  0  0  0  0  0  0  0
  125.9949  167.6518  153.9712 H   0  0  0  0  0  0  0  0  0  0  0  0
  124.9438  169.6160  155.6709 H   0  0  0  0  0  0  0  0  0  0  0  0
  123.7056  168.2960  155.3690 H   0  0  0  0  0  0  0  0  0  0  0  0
  123.6058  166.6354  156.6027 H   0  0  0  0  0  0  0  0  0  0  0  0
  124.4116  164.9899  158.2231 H   0  0  0  0  0  0  0  0  0  0  0  0
  126.8215  165.0578  158.9292 H   0  0  0  0  0  0  0  0  0  0  0  0
  128.2829  166.7942  157.9464 H   0  0  0  0  0  0  0  0  0  0  0  0
  127.4635  168.4073  156.3461 H   0  0  0  0  0  0  0  0  0  0  0  0
  124.0664  170.1479  152.5479 H   0  0  0  0  0  0  0  0  0  0  0  0
  125.5290  171.2012  152.1898 H   0  0  0  0  0  0  0  0  0  0  0  0
  124.7226  168.5950  150.9295 H   0  0  0  0  0  0  0  0  0  0  0  0
  124.9695  170.2524  150.1893 H   0  0  0  0  0  0  0  0  0  0  0  0
  1  2  1  0
  2  3  1  0
  3  4  2  0
  3  5  1  0
  5  6  1  0
  6  7  1  0
  7  8  2  0
  8  9  1  0
  9 10  2  0
 10 11  1  0
 11 12  1  0
 12 13  1  0
 11 14  2  0
  5 15  1  0
 15 16  1  0
 16 17  1  0
 17 18  1  0
 18 19  1  0
 19 20  1  0
 20 21  1  0
 21 22  2  0
 22 23  1  0
 23 24  2  0
 24 25  1  0
 25 26  2  0
 18 27  1  0
 27 28  1  0
 14  7  1  0
 28 15  1  0
 26 21  1  0
  1 29  1  0
  1 30  1  0
  1 31  1  0
  2 32  1  0
  2 33  1  0
  6 34  1  0
  6 35  1  0
  8 36  1  0
  9 37  1  0
 10 38  1  0
 12 39  1  0
 12 40  1  0
 13 41  1  0
 14 42  1  0
 15 43  1  0
 16 44  1  0
 16 45  1  0
 17 46  1  0
 17 47  1  0
 19 48  1  0
 19 49  1  0
 20 50  1  0
 20 51  1  0
 22 52  1  0
 23 53  1  0
 24 54  1  0
 25 55  1  0
 26 56  1  0
 27 57  1  0
 27 58  1  0
 28 59  1  0
 28 60  1  0
M  END
$$$$

     RDKit          3D

 60 62  0  0  0  0  0  0  0  0999 V2000
  125.1490  168.6340  154.8780 C   0  0  0  0  0  0  0  0  0  0  0  0
  126.3660  168.6990  153.9880 C   0  0  0  0  0  0  0  0  0  0  0  0
  125.9220  168.6860  152.5830 C   0  0  0  0  0  0  0  0  0  0  0  0
  125.1160  169.5870  152.9110 O   0  0  0  0  0  0  0  0  0  0  0  0
  126.1920  168.0230  151.3590 N   0  0  0  0  0  0  0  0  0  0  0  0
  127.5750  167.9810  150.9630 C   0  0  0  0  0  0  0  0  0  0  0  0
  128.1640  169.2470  150.5450 C   0  0  0  0  0  0  0  0  0  0  0  0
  129.2860  169.8770  151.0750 C   0  0  0  0  0  0  0  0  0  0  0  0
  129.8160  171.0730  150.6460 C   0  0  0  0  0  0  0  0  0  0  0  0
  129.2090  171.7270  149.6050 C   0  0  0  0  0  0  0  0  0  0  0  0
  128.0740  171.2080  148.9790 C   0  0  0  0  0  0  0  0  0  0  0  0
  127.3840  171.8650  147.8600 C   0  0  0  0  0  0  0  0  0  0  0  0
  126.4440  171.0770  147.2170 O   0  0  0  0  0  0  0  0  0  0  0  0
  127.6250  169.9970  149.4940 C   0  0  0  0  0  0  0  0  0  0  0  0
  124.8610  167.6360  150.9530 C   0  0  0  0  0  0  0  0  0  0  0  0
  124.4540  166.4160  151.7010 C   0  0  0  0  0  0  0  0  0  0  0  0
  123.2710  165.7110  151.0870 C   0  0  0  0  0  0  0  0  0  0  0  0
  123.3790  165.4790  149.6720 N   0  0  0  0  0  0  0  0  0  0  0  0
  124.1570  164.3290  149.3370 C   0  0  0  0  0  0  0  0  0  0  0  0
  123.4380  163.1800  148.7220 C   0  0  0  0  0  0  0  0  0  0  0  0
  124.3170  162.0680  148.2830 C   0  0  0  0  0  0  0  0  0  0  0  0
  125.2900  161.6490  149.2030 C   0  0  0  0  0  0  0  0  0  0  0  0
  126.2050  160.6400  148.9960 C   0  0  0  0  0  0  0  0  0  0  0  0
  126.1780  159.9730  147.7910 C   0  0  0  0  0  0  0  0  0  0  0  0
  125.2360  160.3600  146.8660 C   0  0  0  0  0  0  0  0  0  0  0  0
  124.3450  161.3620  147.1000 C   0  0  0  0  0  0  0  0  0  0  0  0
  123.7060  166.6550  148.9240 C   0  0  0  0  0  0  0  0  0  0  0  0
  124.8780  167.4410  149.4580 C   0  0  0  0  0  0  0  0  0  0  0  0
  125.4641  168.6508  155.9318 H   0  0  0  0  0  0  0  0  0  0  0  0
  124.5000  169.4988  154.6755 H   0  0  0  0  0  0  0  0  0  0  0  0
  124.5958  167.7050  154.6755 H   0  0  0  0  0  0  0  0  0  0  0  0
  126.9249  169.6243  154.1915 H   0  0  0  0  0  0  0  0  0  0  0  0
  127.0209  167.8370  154.1832 H   0  0  0  0  0  0  0  0  0  0  0  0
  128.1574  167.6059  151.8175 H   0  0  0  0  0  0  0  0  0  0  0  0
  127.6068  167.3341  150.0739 H   0  0  0  0  0  0  0  0  0  0  0  0
  129.7946  169.3747  151.9111 H   0  0  0  0  0  0  0  0  0  0  0  0
  130.7092  171.4958  151.1291 H   0  0  0  0  0  0  0  0  0  0  0  0
  129.6259  172.6828  149.2549 H   0  0  0  0  0  0  0  0  0  0  0  0
  126.8737  172.7584  148.2492 H   0  0  0  0  0  0  0  0  0  0  0  0
  128.1567  172.0990  147.1129 H   0  0  0  0  0  0  0  0  0  0  0  0
  126.2370  171.3760  146.3050 H   0  0  0  0  0  0  0  0  0  0  0  0
  126.7307  169.5740  149.0131 H   0  0  0  0  0  0  0  0  0  0  0  0
  124.1139  168.4083  151.1884 H   0  0  0  0  0  0  0  0  0  0  0  0
  125.3045  165.7187  151.7221 H   0  0  0  0  0  0  0  0  0  0  0  0
  124.1568  166.7351  152.7109 H   0  0  0  0  0  0  0  0  0  0  0  0
  123.1551  164.7376  151.5861 H   0  0  0  0  0  0  0  0  0  0  0  0
  122.4055  166.3750  151.2282 H   0  0  0  0  0  0  0  0  0  0  0  0
  124.9354  164.6501  148.6292 H   0  0  0  0  0  0  0  0  0  0  0  0
  124.5315  163.9486  150.2988 H   0  0  0  0  0  0  0  0  0  0  0  0
  122.7266  162.7841  149.4617 H   0  0  0  0  0  0  0  0  0  0  0  0
  122.9467  163.5665  147.8169 H   0  0  0  0  0  0  0  0  0  0  0  0
  125.3252  162.1700  150.1711 H   0  0  0  0  0  0  0  0  0  0  0  0
  126.9376  160.3741  149.7723 H   0  0  0  0  0  0  0  0  0  0  0  0
  126.8855  159.1587  147.5757 H   0  0  0  0  0  0  0  0  0  0  0  0
  125.2015  159.8385  145.8981 H   0  0  0  0  0  0  0  0  0  0  0  0
  123.6191  161.6181  146.3142 H   0  0  0  0  0  0  0  0  0  0  0  0
  123.9398  166.3505  147.8932 H   0  0  0  0  0  0  0  0  0  0  0  0
  122.8315  167.3186  148.9938 H   0  0  0  0  0  0  0  0  0  0  0  0
  125.8020  166.9077  149.1900 H   0  0  0  0  0  0  0  0  0  0  0  0
  124.8186  168.4428  149.0076 H   0  0  0  0  0  0  0  0  0  0  0  0
  1  2  1  0
  2  3  1  0
  3  4  2  0
  3  5  1  0
  5  6  1  0
  6  7  1  0
  7  8  2  0
  8  9  1  0
  9 10  2  0
 10 11  1  0
 11 12  1  0
 12 13  1  0
 11 14  2  0
  5 15  1  0
 15 16  1  0
 16 17  1  0
 17 18  1  0
 18 19  1  0
 19 20  1  0
 20 21  1  0
 21 22  2  0
 22 23  1  0
 23 24  2  0
 24 25  1  0
 25 26  2  0
 18 27  1  0
 27 28  1  0
 14  7  1  0
 28 15  1  0
 26 21  1  0
  1 29  1  0
  1 30  1  0
  1 31  1  0
  2 32  1  0
  2 33  1  0
  6 34  1  0
  6 35  1  0
  8 36  1  0
  9 37  1  0
 10 38  1  0
 12 39  1  0
 12 40  1  0
 13 41  1  0
 14 42  1  0
 15 43  1  0
 16 44  1  0
 16 45  1  0
 17 46  1  0
 17 47  1  0
 19 48  1  0
 19 49  1  0
 20 50  1  0
 20 51  1  0
 22 52  1  0
 23 53  1  0
 24 54  1  0
 25 55  1  0
 26 56  1  0
 27 57  1  0
 27 58  1  0
 28 59  1  0
 28 60  1  0
M  END
$$$$

     RDKit          3D

 60 62  0  0  0  0  0  0  0  0999 V2000
  129.4810  172.5170  150.2140 C   0  0  0  0  0  0  0  0  0  0  0  0
  128.4060  172.0430  149.2660 C   0  0  0  0  0  0  0  0  0  0  0  0
  128.0070  170.6790  149.6530 C   0  0  0  0  0  0  0  0  0  0  0  0
  129.1590  170.3280  149.3110 O   0  0  0  0  0  0  0  0  0  0  0  0
  126.8910  169.9750  150.1720 N   0  0  0  0  0  0  0  0  0  0  0  0
  125.8760  170.7830  150.7950 C   0  0  0  0  0  0  0  0  0  0  0  0
  126.1210  171.1690  152.1790 C   0  0  0  0  0  0  0  0  0  0  0  0
  126.7340  172.3320  152.6400 C   0  0  0  0  0  0  0  0  0  0  0  0
  126.9400  172.6630  153.9590 C   0  0  0  0  0  0  0  0  0  0  0  0
  126.5160  171.7950  154.9320 C   0  0  0  0  0  0  0  0  0  0  0  0
  125.8860  170.5910  154.6110 C   0  0  0  0  0  0  0  0  0  0  0  0
  125.4110  169.6240  155.6110 C   0  0  0  0  0  0  0  0  0  0  0  0
  125.8160  168.3180  155.3910 O   0  0  0  0  0  0  0  0  0  0  0  0
  125.7300  170.3580  153.2490 C   0  0  0  0  0  0  0  0  0  0  0  0
  127.2520  168.6120  149.8580 C   0  0  0  0  0  0  0  0  0  0  0  0
  126.2930  168.0660  148.8610 C   0  0  0  0  0  0  0  0  0  0  0  0
  126.3360  166.5610  148.7590 C   0  0  0  0  0  0  0  0  0  0  0  0
  126.2720  165.8730  150.0190 N   0  0  0  0  0  0  0  0  0  0  0  0
  124.9460  165.7360  150.5320 C   0  0  0  0  0  0  0  0  0  0  0  0
  123.9720  164.9800  149.6990 C   0  0  0  0  0  0  0  0  0  0  0  0
  124.0950  163.5040  149.7950 C   0  0  0  0  0  0  0  0  0  0  0  0
  123.3510  162.7610  148.8670 C   0  0  0  0  0  0  0  0  0  0  0  0
  123.3210  161.3860  148.7840 C   0  0  0  0  0  0  0  0  0  0  0  0
  124.0780  160.6620  149.6780 C   0  0  0  0  0  0  0  0  0  0  0  0
  124.8190  161.3620  150.6030 C   0  0  0  0  0  0  0  0  0  0  0  0
  124.8280  162.7210  150.6600 C   0  0  0  0  0  0  0  0  0  0  0  0
  127.2330  166.3390  150.9730 C   0  0  0  0  0  0  0  0  0  0  0  0
  127.2750  167.8360  151.1510 C   0  0  0  0  0  0  0  0  0  0  0  0
  129.1462  172.3694  151.2514 H   0  0  0  0  0  0  0  0  0  0  0  0
  130.4024  171.9417  150.0407 H   0  0  0  0  0  0  0  0  0  0  0  0
  129.6777  173.5853  150.0407 H   0  0  0  0  0  0  0  0  0  0  0  0
  127.5368  172.7145  149.3257 H   0  0  0  0  0  0  0  0  0  0  0  0
  128.7871  172.0448  148.2341 H   0  0  0  0  0  0  0  0  0  0  0  0
  125.7701  171.7042  150.2033 H   0  0  0  0  0  0  0  0  0  0  0  0
  124.9734  170.1548  150.8197 H   0  0  0  0  0  0  0  0  0  0  0  0
  127.0841  173.0486  151.8824 H   0  0  0  0  0  0  0  0  0  0  0  0
  127.4360  173.6071  154.2284 H   0  0  0  0  0  0  0  0  0  0  0  0
  126.6758  172.0530  155.9893 H   0  0  0  0  0  0  0  0  0  0  0  0
  125.7862  169.9377  156.5963 H   0  0  0  0  0  0  0  0  0  0  0  0
  124.3129  169.6239  155.5461 H   0  0  0  0  0  0  0  0  0  0  0  0
  126.1290  167.8620  156.2020 H   0  0  0  0  0  0  0  0  0  0  0  0
  125.2351  169.4137  152.9783 H   0  0  0  0  0  0  0  0  0  0  0  0
  128.2494  168.5418  149.3995 H   0  0  0  0  0  0  0  0  0  0  0  0
  125.2761  168.3680  149.1519 H   0  0  0  0  0  0  0  0  0  0  0  0
  126.5777  168.4691  147.8779 H   0  0  0  0  0  0  0  0  0  0  0  0
  125.4829  166.2343  148.1462 H   0  0  0  0  0  0  0  0  0  0  0  0
  127.3096  166.3068  148.3146 H   0  0  0  0  0  0  0  0  0  0  0  0
  125.0177  165.2254  151.5037 H   0  0  0  0  0  0  0  0  0  0  0  0
  124.5495  166.7612  150.5737 H   0  0  0  0  0  0  0  0  0  0  0  0
  122.9571  165.2615  150.0165 H   0  0  0  0  0  0  0  0  0  0  0  0
  124.1842  165.2441  148.6525 H   0  0  0  0  0  0  0  0  0  0  0  0
  122.7403  163.3230  148.1450 H   0  0  0  0  0  0  0  0  0  0  0  0
  122.7084  160.8798  148.0235 H   0  0  0  0  0  0  0  0  0  0  0  0
  124.0901  159.5623  149.6537 H   0  0  0  0  0  0  0  0  0  0  0  0
  125.4287  160.7995  151.3255 H   0  0  0  0  0  0  0  0  0  0  0  0
  125.4443  163.2140  151.4263 H   0  0  0  0  0  0  0  0  0  0  0  0
  126.9959  165.8854  151.9467 H   0  0  0  0  0  0  0  0  0  0  0  0
  128.2200  166.0461  150.5857 H   0  0  0  0  0  0  0  0  0  0  0  0
  126.4028  168.1370  151.7498 H   0  0  0  0  0  0  0  0  0  0  0  0
  128.2304  168.0696  151.6435 H   0  0  0  0  0  0  0  0  0  0  0  0
  1  2  1  0
  2  3  1  0
  3  4  2  0
  3  5  1  0
  5  6  1  0
  6  7  1  0
  7  8  2  0
  8  9  1  0
  9 10  2  0
 10 11  1  0
 11 12  1  0
 12 13  1  0
 11 14  2  0
  5 15  1  0
 15 16  1  0
 16 17  1  0
 17 18  1  0
 18 19  1  0
 19 20  1  0
 20 21  1  0
 21 22  2  0
 22 23  1  0
 23 24  2  0
 24 25  1  0
 25 26  2  0
 18 27  1  0
 27 28  1  0
 14  7  1  0
 28 15  1  0
 26 21  1  0
  1 29  1  0
  1 30  1  0
  1 31  1  0
  2 32  1  0
  2 33  1  0
  6 34  1  0
  6 35  1  0
  8 36  1  0
  9 37  1  0
 10 38  1  0
 12 39  1  0
 12 40  1  0
 13 41  1  0
 14 42  1  0
 15 43  1  0
 16 44  1  0
 16 45  1  0
 17 46  1  0
 17 47  1  0
 19 48  1  0
 19 49  1  0
 20 50  1  0
 20 51  1  0
 22 52  1  0
 23 53  1  0
 24 54  1  0
 25 55  1  0
 26 56  1  0
 27 57  1  0
 27 58  1  0
 28 59  1  0
 28 60  1  0
M  END
$$$$

     RDKit          3D

 60 62  0  0  0  0  0  0  0  0999 V2000
  129.2300  170.5010  148.1730 C   0  0  0  0  0  0  0  0  0  0  0  0
  127.9750  171.3400  148.1630 C   0  0  0  0  0  0  0  0  0  0  0  0
  126.8130  170.4490  148.3250 C   0  0  0  0  0  0  0  0  0  0  0  0
  126.2420  171.1670  147.4730 O   0  0  0  0  0  0  0  0  0  0  0  0
  126.4100  169.3040  149.0570 N   0  0  0  0  0  0  0  0  0  0  0  0
  126.0600  168.1500  148.2710 C   0  0  0  0  0  0  0  0  0  0  0  0
  124.9640  167.3340  148.7780 C   0  0  0  0  0  0  0  0  0  0  0  0
  123.6270  167.3730  148.3890 C   0  0  0  0  0  0  0  0  0  0  0  0
  122.6210  166.5780  148.8890 C   0  0  0  0  0  0  0  0  0  0  0  0
  122.9280  165.6550  149.8550 C   0  0  0  0  0  0  0  0  0  0  0  0
  124.2300  165.5090  150.3380 C   0  0  0  0  0  0  0  0  0  0  0  0
  124.6160  164.5380  151.3710 C   0  0  0  0  0  0  0  0  0  0  0  0
  124.8130  163.2480  150.9080 O   0  0  0  0  0  0  0  0  0  0  0  0
  125.1650  166.3630  149.7640 C   0  0  0  0  0  0  0  0  0  0  0  0
  126.5030  169.7940  150.4130 C   0  0  0  0  0  0  0  0  0  0  0  0
  127.4300  168.9260  151.1870 C   0  0  0  0  0  0  0  0  0  0  0  0
  127.3000  169.1030  152.6800 C   0  0  0  0  0  0  0  0  0  0  0  0
  125.9520  169.0480  153.1750 N   0  0  0  0  0  0  0  0  0  0  0  0
  125.4600  167.7190  153.3540 C   0  0  0  0  0  0  0  0  0  0  0  0
  123.9910  167.5580  153.5320 C   0  0  0  0  0  0  0  0  0  0  0  0
  123.5270  167.6600  154.9380 C   0  0  0  0  0  0  0  0  0  0  0  0
  122.2220  168.1390  155.1250 C   0  0  0  0  0  0  0  0  0  0  0  0
  121.5990  168.3120  156.3420 C   0  0  0  0  0  0  0  0  0  0  0  0
  122.3010  167.9920  157.4840 C   0  0  0  0  0  0  0  0  0  0  0  0
  123.5850  167.5200  157.3350 C   0  0  0  0  0  0  0  0  0  0  0  0
  124.1720  167.3610  156.1180 C   0  0  0  0  0  0  0  0  0  0  0  0
  125.0540  169.9250  152.4860 C   0  0  0  0  0  0  0  0  0  0  0  0
  125.1060  169.8310  150.9810 C   0  0  0  0  0  0  0  0  0  0  0  0
  129.5291  170.3011  149.2125 H   0  0  0  0  0  0  0  0  0  0  0  0
  129.0385  169.5487  147.6569 H   0  0  0  0  0  0  0  0  0  0  0  0
  130.0368  171.0420  147.6569 H   0  0  0  0  0  0  0  0  0  0  0  0
  128.0059  172.0631  148.9914 H   0  0  0  0  0  0  0  0  0  0  0  0
  127.8978  171.8895  147.2132 H   0  0  0  0  0  0  0  0  0  0  0  0
  125.7806  168.5004  147.2664 H   0  0  0  0  0  0  0  0  0  0  0  0
  126.9463  167.4989  148.2934 H   0  0  0  0  0  0  0  0  0  0  0  0
  123.3510  168.1034  147.6141 H   0  0  0  0  0  0  0  0  0  0  0  0
  121.5898  166.6813  148.5204 H   0  0  0  0  0  0  0  0  0  0  0  0
  122.1301  165.0145  150.2590 H   0  0  0  0  0  0  0  0  0  0  0  0
  125.5529  164.8831  151.8327 H   0  0  0  0  0  0  0  0  0  0  0  0
  123.7765  164.4887  152.0801 H   0  0  0  0  0  0  0  0  0  0  0  0
  125.0540  162.6090  151.6140 H   0  0  0  0  0  0  0  0  0  0  0  0
  126.1962  166.2618  150.1332 H   0  0  0  0  0  0  0  0  0  0  0  0
  126.9188  170.8113  150.4601 H   0  0  0  0  0  0  0  0  0  0  0  0
  127.2153  167.8760  150.9391 H   0  0  0  0  0  0  0  0  0  0  0  0
  128.4553  169.2134  150.9110 H   0  0  0  0  0  0  0  0  0  0  0  0
  127.8784  168.3067  153.1713 H   0  0  0  0  0  0  0  0  0  0  0  0
  127.6741  170.1121  152.9075 H   0  0  0  0  0  0  0  0  0  0  0  0
  125.7524  167.1353  152.4687 H   0  0  0  0  0  0  0  0  0  0  0  0
  125.9006  167.3778  154.3024 H   0  0  0  0  0  0  0  0  0  0  0  0
  123.4861  168.3400  152.9459 H   0  0  0  0  0  0  0  0  0  0  0  0
  123.7444  166.5407  153.1940 H   0  0  0  0  0  0  0  0  0  0  0  0
  121.6471  168.3986  154.2238 H   0  0  0  0  0  0  0  0  0  0  0  0
  120.5695  168.6950  156.4003 H   0  0  0  0  0  0  0  0  0  0  0  0
  121.8503  168.1099  158.4805 H   0  0  0  0  0  0  0  0  0  0  0  0
  124.1600  167.2608  158.2362 H   0  0  0  0  0  0  0  0  0  0  0  0
  125.2024  166.9785  156.0745 H   0  0  0  0  0  0  0  0  0  0  0  0
  124.0295  169.6874  152.8083 H   0  0  0  0  0  0  0  0  0  0  0  0
  125.3640  170.9487  152.7426 H   0  0  0  0  0  0  0  0  0  0  0  0
  124.5842  168.9125  150.6742 H   0  0  0  0  0  0  0  0  0  0  0  0
  124.6292  170.7420  150.5901 H   0  0  0  0  0  0  0  0  0  0  0  0
  1  2  1  0
  2  3  1  0
  3  4  2  0
  3  5  1  0
  5  6  1  0
  6  7  1  0
  7  8  2  0
  8  9  1  0
  9 10  2  0
 10 11  1  0
 11 12  1  0
 12 13  1  0
 11 14  2  0
  5 15  1  0
 15 16  1  0
 16 17  1  0
 17 18  1  0
 18 19  1  0
 19 20  1  0
 20 21  1  0
 21 22  2  0
 22 23  1  0
 23 24  2  0
 24 25  1  0
 25 26  2  0
 18 27  1  0
 27 28  1  0
 14  7  1  0
 28 15  1  0
 26 21  1  0
  1 29  1  0
  1 30  1  0
  1 31  1  0
  2 32  1  0
  2 33  1  0
  6 34  1  0
  6 35  1  0
  8 36  1  0
  9 37  1  0
 10 38  1  0
 12 39  1  0
 12 40  1  0
 13 41  1  0
 14 42  1  0
 15 43  1  0
 16 44  1  0
 16 45  1  0
 17 46  1  0
 17 47  1  0
 19 48  1  0
 19 49  1  0
 20 50  1  0
 20 51  1  0
 22 52  1  0
 23 53  1  0
 24 54  1  0
 25 55  1  0
 26 56  1  0
 27 57  1  0
 27 58  1  0
 28 59  1  0
 28 60  1  0
M  END
$$$$

     RDKit          3D

 60 62  0  0  0  0  0  0  0  0999 V2000
  122.4690  167.3310  148.4100 C   0  0  0  0  0  0  0  0  0  0  0  0
  123.7830  166.6490  148.7020 C   0  0  0  0  0  0  0  0  0  0  0  0
  124.7460  167.6640  149.1630 C   0  0  0  0  0  0  0  0  0  0  0  0
  125.1250  167.7350  147.9720 O   0  0  0  0  0  0  0  0  0  0  0  0
  125.1490  168.3250  150.3510 N   0  0  0  0  0  0  0  0  0  0  0  0
  125.0350  169.7600  150.3380 C   0  0  0  0  0  0  0  0  0  0  0  0
  126.1870  170.4930  149.8280 C   0  0  0  0  0  0  0  0  0  0  0  0
  126.5120  170.7430  148.4970 C   0  0  0  0  0  0  0  0  0  0  0  0
  127.6090  171.4480  148.0570 C   0  0  0  0  0  0  0  0  0  0  0  0
  128.4780  171.9630  148.9830 C   0  0  0  0  0  0  0  0  0  0  0  0
  128.2740  171.7860  150.3530 C   0  0  0  0  0  0  0  0  0  0  0  0
  129.1720  172.3150  151.3900 C   0  0  0  0  0  0  0  0  0  0  0  0
  128.6880  173.4250  152.0630 O   0  0  0  0  0  0  0  0  0  0  0  0
  127.1360  171.0590  150.6850 C   0  0  0  0  0  0  0  0  0  0  0  0
  125.5640  167.2060  151.1640 C   0  0  0  0  0  0  0  0  0  0  0  0
  126.6250  166.4460  150.4510 C   0  0  0  0  0  0  0  0  0  0  0  0
  126.8490  165.0660  151.0170 C   0  0  0  0  0  0  0  0  0  0  0  0
  125.6510  164.2940  151.2060 N   0  0  0  0  0  0  0  0  0  0  0  0
  125.1830  163.6600  150.0150 C   0  0  0  0  0  0  0  0  0  0  0  0
  124.9910  162.1850  150.0640 C   0  0  0  0  0  0  0  0  0  0  0  0
  125.0900  161.5080  148.7470 C   0  0  0  0  0  0  0  0  0  0  0  0
  126.0990  160.5400  148.6250 C   0  0  0  0  0  0  0  0  0  0  0  0
  126.3640  159.7990  147.4940 C   0  0  0  0  0  0  0  0  0  0  0  0
  125.5840  160.0100  146.3780 C   0  0  0  0  0  0  0  0  0  0  0  0
  124.5860  160.9540  146.4650 C   0  0  0  0  0  0  0  0  0  0  0  0
  124.3490  161.6710  147.5970 C   0  0  0  0  0  0  0  0  0  0  0  0
  124.6390  164.9830  151.9490 C   0  0  0  0  0  0  0  0  0  0  0  0
  124.3390  166.3800  151.4650 C   0  0  0  0  0  0  0  0  0  0  0  0
  121.9716  167.5892  149.3565 H   0  0  0  0  0  0  0  0  0  0  0  0
  122.6525  168.2477  147.8303 H   0  0  0  0  0  0  0  0  0  0  0  0
  121.8250  166.6533  147.8303 H   0  0  0  0  0  0  0  0  0  0  0  0
  123.6408  165.8900  149.4854 H   0  0  0  0  0  0  0  0  0  0  0  0
  124.1612  166.1566  147.7940 H   0  0  0  0  0  0  0  0  0  0  0  0
  124.1677  170.0220  149.7142 H   0  0  0  0  0  0  0  0  0  0  0  0
  124.9408  170.0571  151.3929 H   0  0  0  0  0  0  0  0  0  0  0  0
  125.8326  170.3419  147.7305 H   0  0  0  0  0  0  0  0  0  0  0  0
  127.7851  171.5955  146.9813 H   0  0  0  0  0  0  0  0  0  0  0  0
  129.3564  172.5288  148.6392 H   0  0  0  0  0  0  0  0  0  0  0  0
  129.3511  171.5184  152.1271 H   0  0  0  0  0  0  0  0  0  0  0  0
  130.0870  172.6395  150.8729 H   0  0  0  0  0  0  0  0  0  0  0  0
  127.7560  173.3300  152.3570 H   0  0  0  0  0  0  0  0  0  0  0  0
  126.9596  170.9100  151.7605 H   0  0  0  0  0  0  0  0  0  0  0  0
  126.0023  167.5281  152.1201 H   0  0  0  0  0  0  0  0  0  0  0  0
  126.3349  166.3478  149.3945 H   0  0  0  0  0  0  0  0  0  0  0  0
  127.5646  167.0052  150.5709 H   0  0  0  0  0  0  0  0  0  0  0  0
  127.5066  164.5154  150.3282 H   0  0  0  0  0  0  0  0  0  0  0  0
  127.2895  165.2066  152.0151 H   0  0  0  0  0  0  0  0  0  0  0  0
  124.2138  164.1122  149.7575 H   0  0  0  0  0  0  0  0  0  0  0  0
  125.9810  163.8192  149.2749 H   0  0  0  0  0  0  0  0  0  0  0  0
  125.7589  161.7603  150.7273 H   0  0  0  0  0  0  0  0  0  0  0  0
  123.9669  162.0144  150.4275 H   0  0  0  0  0  0  0  0  0  0  0  0
  126.7314  160.3576  149.5064 H   0  0  0  0  0  0  0  0  0  0  0  0
  127.1771  159.0583  147.4824 H   0  0  0  0  0  0  0  0  0  0  0  0
  125.7529  159.4439  145.4501 H   0  0  0  0  0  0  0  0  0  0  0  0
  123.9541  161.1363  145.5832 H   0  0  0  0  0  0  0  0  0  0  0  0
  123.5339  162.4097  147.5938 H   0  0  0  0  0  0  0  0  0  0  0  0
  123.7116  164.3943  151.8911 H   0  0  0  0  0  0  0  0  0  0  0  0
  125.0242  165.0867  152.9741 H   0  0  0  0  0  0  0  0  0  0  0  0
  123.7389  166.3054  150.5461 H   0  0  0  0  0  0  0  0  0  0  0  0
  123.8066  166.8900  152.2814 H   0  0  0  0  0  0  0  0  0  0  0  0
  1  2  1  0
  2  3  1  0
  3  4  2  0
  3  5  1  0
  5  6  1  0
  6  7  1  0
  7  8  2  0
  8  9  1  0
  9 10  2  0
 10 11  1  0
 11 12  1  0
 12 13  1  0
 11 14  2  0
  5 15  1  0
 15 16  1  0
 16 17  1  0
 17 18  1  0
 18 19  1  0
 19 20  1  0
 20 21  1  0
 21 22  2  0
 22 23  1  0
 23 24  2  0
 24 25  1  0
 25 26  2  0
 18 27  1  0
 27 28  1  0
 14  7  1  0
 28 15  1  0
 26 21  1  0
  1 29  1  0
  1 30  1  0
  1 31  1  0
  2 32  1  0
  2 33  1  0
  6 34  1  0
  6 35  1  0
  8 36  1  0
  9 37  1  0
 10 38  1  0
 12 39  1  0
 12 40  1  0
 13 41  1  0
 14 42  1  0
 15 43  1  0
 16 44  1  0
 16 45  1  0
 17 46  1  0
 17 47  1  0
 19 48  1  0
 19 49  1  0
 20 50  1  0
 20 51  1  0
 22 52  1  0
 23 53  1  0
 24 54  1  0
 25 55  1  0
 26 56  1  0
 27 57  1  0
 27 58  1  0
 28 59  1  0
 28 60  1  0
M  END
$$$$

