
     RDKit          3D

 59 61  0  0  0  0  0  0  0  0999 V2000
  122.3500  166.6020  148.8750 C   0  0  0  0  0  0  0  0  0  0  0  0
  122.6590  165.4620  149.8570 C   0  0  0  0  0  0  0  0  0  0  0  0
  123.9220  164.8220  149.4470 C   0  0  0  0  0  0  0  0  0  0  0  0
  123.4990  164.6290  148.2780 O   0  0  0  0  0  0  0  0  0  0  0  0
  125.0930  164.5850  150.2100 N   0  0  0  0  0  0  0  0  0  0  0  0
  125.6020  163.3010  150.5940 C   0  0  0  0  0  0  0  0  0  0  0  0
  125.2870  162.1760  149.7360 C   0  0  0  0  0  0  0  0  0  0  0  0
  124.2660  161.3130  150.1540 C   0  0  0  0  0  0  0  0  0  0  0  0
  123.9170  160.2290  149.3870 C   0  0  0  0  0  0  0  0  0  0  0  0
  124.5210  159.9390  148.2150 N   0  0  0  0  0  0  0  0  0  0  0  0
  125.5140  160.7690  147.7930 C   0  0  0  0  0  0  0  0  0  0  0  0
  126.1650  160.4270  146.4960 C   0  0  0  0  0  0  0  0  0  0  0  0
  125.1730  160.0860  145.5490 O   0  0  0  0  0  0  0  0  0  0  0  0
  125.8800  161.8670  148.5560 C   0  0  0  0  0  0  0  0  0  0  0  0
  125.7920  165.8210  150.6010 C   0  0  0  0  0  0  0  0  0  0  0  0
  126.1080  166.6850  149.4340 C   0  0  0  0  0  0  0  0  0  0  0  0
  125.4950  168.0280  149.3840 C   0  0  0  0  0  0  0  0  0  0  0  0
  125.2400  168.6650  150.6160 N   0  0  0  0  0  0  0  0  0  0  0  0
  125.4010  170.0670  150.6960 C   0  0  0  0  0  0  0  0  0  0  0  0
  126.6570  170.5560  151.3550 C   0  0  0  0  0  0  0  0  0  0  0  0
  127.4530  171.2460  150.2820 C   0  0  0  0  0  0  0  0  0  0  0  0
  127.1960  171.1880  148.9290 C   0  0  0  0  0  0  0  0  0  0  0  0
  127.9790  171.8520  148.0270 C   0  0  0  0  0  0  0  0  0  0  0  0
  129.0590  172.6090  148.4200 C   0  0  0  0  0  0  0  0  0  0  0  0
  129.8080  173.2490  147.4990 F   0  0  0  0  0  0  0  0  0  0  0  0
  129.3670  172.7070  149.7590 C   0  0  0  0  0  0  0  0  0  0  0  0
  128.5520  172.0210  150.6400 C   0  0  0  0  0  0  0  0  0  0  0  0
  125.5240  167.9590  151.8100 C   0  0  0  0  0  0  0  0  0  0  0  0
  125.0750  166.5170  151.7340 C   0  0  0  0  0  0  0  0  0  0  0  0
  122.1028  167.5141  149.4381 H   0  0  0  0  0  0  0  0  0  0  0  0
  123.2298  166.7891  148.2418 H   0  0  0  0  0  0  0  0  0  0  0  0
  121.4961  166.3192  148.2418 H   0  0  0  0  0  0  0  0  0  0  0  0
  122.7611  165.8663  150.8749 H   0  0  0  0  0  0  0  0  0  0  0  0
  121.8425  164.7250  149.8484 H   0  0  0  0  0  0  0  0  0  0  0  0
  126.6979  163.3817  150.6437 H   0  0  0  0  0  0  0  0  0  0  0  0
  125.1050  163.0749  151.5489 H   0  0  0  0  0  0  0  0  0  0  0  0
  123.7412  161.5047  151.1015 H   0  0  0  0  0  0  0  0  0  0  0  0
  123.1116  159.5693  149.7423 H   0  0  0  0  0  0  0  0  0  0  0  0
  126.7370  161.2935  146.1326 H   0  0  0  0  0  0  0  0  0  0  0  0
  126.8449  159.5743  146.6395 H   0  0  0  0  0  0  0  0  0  0  0  0
  124.9990  159.1070  145.7100 H   0  0  0  0  0  0  0  0  0  0  0  0
  126.6876  162.5168  148.1879 H   0  0  0  0  0  0  0  0  0  0  0  0
  126.7788  165.5491  151.0040 H   0  0  0  0  0  0  0  0  0  0  0  0
  127.1993  166.8217  149.4132 H   0  0  0  0  0  0  0  0  0  0  0  0
  125.6792  166.1530  148.5720 H   0  0  0  0  0  0  0  0  0  0  0  0
  126.1695  168.6787  148.8081 H   0  0  0  0  0  0  0  0  0  0  0  0
  124.5033  167.8711  148.9346 H   0  0  0  0  0  0  0  0  0  0  0  0
  125.3837  170.4652  149.6708 H   0  0  0  0  0  0  0  0  0  0  0  0
  124.5782  170.4204  151.3349 H   0  0  0  0  0  0  0  0  0  0  0  0
  126.4137  171.2619  152.1628 H   0  0  0  0  0  0  0  0  0  0  0  0
  127.2234  169.7264  151.8032 H   0  0  0  0  0  0  0  0  0  0  0  0
  126.3429  170.5949  148.5678 H   0  0  0  0  0  0  0  0  0  0  0  0
  127.7391  171.7793  146.9559 H   0  0  0  0  0  0  0  0  0  0  0  0
  130.2217  173.3034  150.1109 H   0  0  0  0  0  0  0  0  0  0  0  0
  128.7917  172.0936  151.7111 H   0  0  0  0  0  0  0  0  0  0  0  0
  126.6091  167.9845  151.9884 H   0  0  0  0  0  0  0  0  0  0  0  0
  124.9752  168.4437  152.6309 H   0  0  0  0  0  0  0  0  0  0  0  0
  125.3097  166.0103  152.6817 H   0  0  0  0  0  0  0  0  0  0  0  0
  123.9901  166.4815  151.5557 H   0  0  0  0  0  0  0  0  0  0  0  0
  1  2  1  0
  2  3  1  0
  3  4  2  0
  3  5  1  0
  5  6  1  0
  6  7  1  0
  7  8  2  0
  8  9  1  0
  9 10  2  0
 10 11  1  0
 11 12  1  0
 12 13  1  0
 11 14  2  0
  5 15  1  0
 15 16  1  0
 16 17  1  0
 17 18  1  0
 18 19  1  0
 19 20  1  0
 20 21  1  0
 21 22  2  0
 22 23  1  0
 23 24  2  0
 24 25  1  0
 24 26  1  0
 26 27  2  0
 18 28  1  0
 28 29  1  0
 14  7  1  0
 29 15  1  0
 27 21  1  0
  1 30  1  0
  1 31  1  0
  1 32  1  0
  2 33  1  0
  2 34  1  0
  6 35  1  0
  6 36  1  0
  8 37  1  0
  9 38  1  0
 12 39  1  0
 12 40  1  0
 13 41  1  0
 14 42  1  0
 15 43  1  0
 16 44  1  0
 16 45  1  0
 17 46  1  0
 17 47  1  0
 19 48  1  0
 19 49  1  0
 20 50  1  0
 20 51  1  0
 22 52  1  0
 23 53  1  0
 26 54  1  0
 27 55  1  0
 28 56  1  0
 28 57  1  0
 29 58  1  0
 29 59  1  0
M  END
$$$$

     RDKit          3D

 59 61  0  0  0  0  0  0  0  0999 V2000
  128.7230  166.5540  152.0040 C   0  0  0  0  0  0  0  0  0  0  0  0
  128.0030  167.9090  152.0380 C   0  0  0  0  0  0  0  0  0  0  0  0
  126.5890  167.6770  152.3860 C   0  0  0  0  0  0  0  0  0  0  0  0
  126.8430  167.6820  153.6180 O   0  0  0  0  0  0  0  0  0  0  0  0
  125.4690  167.5260  151.5290 N   0  0  0  0  0  0  0  0  0  0  0  0
  124.9210  168.5360  150.6730 C   0  0  0  0  0  0  0  0  0  0  0  0
  125.7330  168.9740  149.5550 C   0  0  0  0  0  0  0  0  0  0  0  0
  125.9260  168.0680  148.5050 C   0  0  0  0  0  0  0  0  0  0  0  0
  126.6840  168.4190  147.4150 C   0  0  0  0  0  0  0  0  0  0  0  0
  127.2730  169.6280  147.2960 N   0  0  0  0  0  0  0  0  0  0  0  0
  127.0950  170.5210  148.3070 C   0  0  0  0  0  0  0  0  0  0  0  0
  127.7560  171.8480  148.1510 C   0  0  0  0  0  0  0  0  0  0  0  0
  128.7050  172.0250  149.1850 O   0  0  0  0  0  0  0  0  0  0  0  0
  126.3330  170.1820  149.4150 C   0  0  0  0  0  0  0  0  0  0  0  0
  124.8770  166.1780  151.5810 C   0  0  0  0  0  0  0  0  0  0  0  0
  123.5030  166.1430  151.0140 C   0  0  0  0  0  0  0  0  0  0  0  0
  123.2690  165.3000  149.8240 C   0  0  0  0  0  0  0  0  0  0  0  0
  124.0580  164.1380  149.6940 N   0  0  0  0  0  0  0  0  0  0  0  0
  123.4690  162.9820  149.1320 C   0  0  0  0  0  0  0  0  0  0  0  0
  124.1200  161.6730  149.4680 C   0  0  0  0  0  0  0  0  0  0  0  0
  124.7480  161.1760  148.1960 C   0  0  0  0  0  0  0  0  0  0  0  0
  126.0170  160.6510  148.0810 C   0  0  0  0  0  0  0  0  0  0  0  0
  126.5030  160.2230  146.8760 C   0  0  0  0  0  0  0  0  0  0  0  0
  125.7550  160.2930  145.7240 C   0  0  0  0  0  0  0  0  0  0  0  0
  126.2690  159.8610  144.5550 F   0  0  0  0  0  0  0  0  0  0  0  0
  124.4780  160.8070  145.7750 C   0  0  0  0  0  0  0  0  0  0  0  0
  124.0230  161.2300  147.0100 C   0  0  0  0  0  0  0  0  0  0  0  0
  125.0570  163.8890  150.6670 C   0  0  0  0  0  0  0  0  0  0  0  0
  125.8250  165.1440  151.0210 C   0  0  0  0  0  0  0  0  0  0  0  0
  128.9058  166.2100  153.0327 H   0  0  0  0  0  0  0  0  0  0  0  0
  128.0965  165.8190  151.4775 H   0  0  0  0  0  0  0  0  0  0  0  0
  129.6828  166.6619  151.4775 H   0  0  0  0  0  0  0  0  0  0  0  0
  128.4696  168.5586  152.7932 H   0  0  0  0  0  0  0  0  0  0  0  0
  128.0746  168.3994  151.0560 H   0  0  0  0  0  0  0  0  0  0  0  0
  123.9780  168.1453  150.2631 H   0  0  0  0  0  0  0  0  0  0  0  0
  124.8210  169.4245  151.3137 H   0  0  0  0  0  0  0  0  0  0  0  0
  125.4678  167.0692  148.5535 H   0  0  0  0  0  0  0  0  0  0  0  0
  126.8166  167.6854  146.6061 H   0  0  0  0  0  0  0  0  0  0  0  0
  128.2631  171.8930  147.1759 H   0  0  0  0  0  0  0  0  0  0  0  0
  126.9991  172.6442  148.2069 H   0  0  0  0  0  0  0  0  0  0  0  0
  128.3300  172.7750  149.7430 H   0  0  0  0  0  0  0  0  0  0  0  0
  126.2098  170.9260  150.2158 H   0  0  0  0  0  0  0  0  0  0  0  0
  124.7358  165.9007  152.6361 H   0  0  0  0  0  0  0  0  0  0  0  0
  122.8301  165.7847  151.8070 H   0  0  0  0  0  0  0  0  0  0  0  0
  123.3218  167.1703  150.6650 H   0  0  0  0  0  0  0  0  0  0  0  0
  122.2154  164.9846  149.8435 H   0  0  0  0  0  0  0  0  0  0  0  0
  123.5499  165.9316  148.9684 H   0  0  0  0  0  0  0  0  0  0  0  0
  122.4258  162.9358  149.4777 H   0  0  0  0  0  0  0  0  0  0  0  0
  123.5828  163.0949  148.0437 H   0  0  0  0  0  0  0  0  0  0  0  0
  124.8888  161.8173  150.2414 H   0  0  0  0  0  0  0  0  0  0  0  0
  123.3885  160.9518  149.8614 H   0  0  0  0  0  0  0  0  0  0  0  0
  126.6518  160.5746  148.9761 H   0  0  0  0  0  0  0  0  0  0  0  0
  127.5217  159.8109  146.8270 H   0  0  0  0  0  0  0  0  0  0  0  0
  123.8496  160.8776  144.8750 H   0  0  0  0  0  0  0  0  0  0  0  0
  123.0046  161.6429  147.0588 H   0  0  0  0  0  0  0  0  0  0  0  0
  124.5780  163.4968  151.5763 H   0  0  0  0  0  0  0  0  0  0  0  0
  125.7675  163.1613  150.2478 H   0  0  0  0  0  0  0  0  0  0  0  0
  126.5910  164.9043  151.7732 H   0  0  0  0  0  0  0  0  0  0  0  0
  126.3082  165.5434  150.1171 H   0  0  0  0  0  0  0  0  0  0  0  0
  1  2  1  0
  2  3  1  0
  3  4  2  0
  3  5  1  0
  5  6  1  0
  6  7  1  0
  7  8  2  0
  8  9  1  0
  9 10  2  0
 10 11  1  0
 11 12  1  0
 12 13  1  0
 11 14  2  0
  5 15  1  0
 15 16  1  0
 16 17  1  0
 17 18  1  0
 18 19  1  0
 19 20  1  0
 20 21  1  0
 21 22  2  0
 22 23  1  0
 23 24  2  0
 24 25  1  0
 24 26  1  0
 26 27  2  0
 18 28  1  0
 28 29  1  0
 14  7  1  0
 29 15  1  0
 27 21  1  0
  1 30  1  0
  1 31  1  0
  1 32  1  0
  2 33  1  0
  2 34  1  0
  6 35  1  0
  6 36  1  0
  8 37  1  0
  9 38  1  0
 12 39  1  0
 12 40  1  0
 13 41  1  0
 14 42  1  0
 15 43  1  0
 16 44  1  0
 16 45  1  0
 17 46  1  0
 17 47  1  0
 19 48  1  0
 19 49  1  0
 20 50  1  0
 20 51  1  0
 22 52  1  0
 23 53  1  0
 26 54  1  0
 27 55  1  0
 28 56  1  0
 28 57  1  0
 29 58  1  0
 29 59  1  0
M  END
$$$$

     RDKit          3D

 59 61  0  0  0  0  0  0  0  0999 V2000
  128.3840  166.5900  152.0820 C   0  0  0  0  0  0  0  0  0  0  0  0
  127.9850  168.0060  151.6430 C   0  0  0  0  0  0  0  0  0  0  0  0
  126.5300  168.0300  151.4070 C   0  0  0  0  0  0  0  0  0  0  0  0
  126.3080  167.3050  152.4110 O   0  0  0  0  0  0  0  0  0  0  0  0
  125.8000  168.6790  150.3790 N   0  0  0  0  0  0  0  0  0  0  0  0
  125.6080  170.0930  150.2460 C   0  0  0  0  0  0  0  0  0  0  0  0
  126.7800  170.9010  149.9730 C   0  0  0  0  0  0  0  0  0  0  0  0
  127.1970  171.0000  148.6400 C   0  0  0  0  0  0  0  0  0  0  0  0
  128.2990  171.7510  148.3120 C   0  0  0  0  0  0  0  0  0  0  0  0
  129.0270  172.4190  149.2310 N   0  0  0  0  0  0  0  0  0  0  0  0
  128.6350  172.3340  150.5320 C   0  0  0  0  0  0  0  0  0  0  0  0
  129.4550  173.0810  151.5270 C   0  0  0  0  0  0  0  0  0  0  0  0
  128.6680  174.0990  152.1140 O   0  0  0  0  0  0  0  0  0  0  0  0
  127.5240  171.5800  150.8800 C   0  0  0  0  0  0  0  0  0  0  0  0
  125.2230  167.7440  149.3980 C   0  0  0  0  0  0  0  0  0  0  0  0
  126.1580  166.6440  149.0470 C   0  0  0  0  0  0  0  0  0  0  0  0
  125.7500  165.2610  149.3690 C   0  0  0  0  0  0  0  0  0  0  0  0
  124.3690  164.9760  149.3430 N   0  0  0  0  0  0  0  0  0  0  0  0
  123.9520  163.7040  148.8860 C   0  0  0  0  0  0  0  0  0  0  0  0
  124.5730  162.5180  149.5610 C   0  0  0  0  0  0  0  0  0  0  0  0
  124.9310  161.5500  148.4670 C   0  0  0  0  0  0  0  0  0  0  0  0
  125.9030  160.5760  148.5460 C   0  0  0  0  0  0  0  0  0  0  0  0
  126.1580  159.7400  147.4950 C   0  0  0  0  0  0  0  0  0  0  0  0
  125.4630  159.8270  146.3110 C   0  0  0  0  0  0  0  0  0  0  0  0
  125.7430  158.9840  145.2970 F   0  0  0  0  0  0  0  0  0  0  0  0
  124.4770  160.7800  146.1720 C   0  0  0  0  0  0  0  0  0  0  0  0
  124.2500  161.6060  147.2560 C   0  0  0  0  0  0  0  0  0  0  0  0
  123.4680  166.0340  149.0750 C   0  0  0  0  0  0  0  0  0  0  0  0
  123.8420  167.2970  149.8190 C   0  0  0  0  0  0  0  0  0  0  0  0
  128.3989  166.5372  153.1806 H   0  0  0  0  0  0  0  0  0  0  0  0
  127.6550  165.8655  151.6900 H   0  0  0  0  0  0  0  0  0  0  0  0
  129.3840  166.3527  151.6900 H   0  0  0  0  0  0  0  0  0  0  0  0
  128.2447  168.7263  152.4327 H   0  0  0  0  0  0  0  0  0  0  0  0
  128.5207  168.2801  150.7222 H   0  0  0  0  0  0  0  0  0  0  0  0
  124.8969  170.2537  149.4223 H   0  0  0  0  0  0  0  0  0  0  0  0
  125.2610  170.4248  151.2357 H   0  0  0  0  0  0  0  0  0  0  0  0
  126.6391  170.4736  147.8516 H   0  0  0  0  0  0  0  0  0  0  0  0
  128.6008  171.8105  147.2559 H   0  0  0  0  0  0  0  0  0  0  0  0
  129.8035  172.3898  152.3085 H   0  0  0  0  0  0  0  0  0  0  0  0
  130.3232  173.5315  151.0238 H   0  0  0  0  0  0  0  0  0  0  0  0
  129.1390  174.3120  152.9790 H   0  0  0  0  0  0  0  0  0  0  0  0
  127.2336  171.5309  151.9398 H   0  0  0  0  0  0  0  0  0  0  0  0
  125.0793  168.2816  148.4492 H   0  0  0  0  0  0  0  0  0  0  0  0
  126.3267  166.6914  147.9610 H   0  0  0  0  0  0  0  0  0  0  0  0
  127.0434  166.8237  149.6745 H   0  0  0  0  0  0  0  0  0  0  0  0
  126.2397  164.5938  148.6444 H   0  0  0  0  0  0  0  0  0  0  0  0
  126.0517  165.1119  150.4163 H   0  0  0  0  0  0  0  0  0  0  0  0
  122.8631  163.6377  149.0274 H   0  0  0  0  0  0  0  0  0  0  0  0
  124.2787  163.6482  147.8371 H   0  0  0  0  0  0  0  0  0  0  0  0
  125.4757  162.8221  150.1111 H   0  0  0  0  0  0  0  0  0  0  0  0
  123.8825  162.0638  150.2869 H   0  0  0  0  0  0  0  0  0  0  0  0
  126.4851  160.4693  149.4732 H   0  0  0  0  0  0  0  0  0  0  0  0
  126.9419  158.9753  147.5990 H   0  0  0  0  0  0  0  0  0  0  0  0
  123.8981  160.8783  145.2418 H   0  0  0  0  0  0  0  0  0  0  0  0
  123.4661  162.3708  147.1525 H   0  0  0  0  0  0  0  0  0  0  0  0
  123.4756  166.2423  147.9949 H   0  0  0  0  0  0  0  0  0  0  0  0
  122.4682  165.7235  149.4125 H   0  0  0  0  0  0  0  0  0  0  0  0
  123.1143  168.0882  149.5858 H   0  0  0  0  0  0  0  0  0  0  0  0
  123.8365  167.0985  150.9009 H   0  0  0  0  0  0  0  0  0  0  0  0
  1  2  1  0
  2  3  1  0
  3  4  2  0
  3  5  1  0
  5  6  1  0
  6  7  1  0
  7  8  2  0
  8  9  1  0
  9 10  2  0
 10 11  1  0
 11 12  1  0
 12 13  1  0
 11 14  2  0
  5 15  1  0
 15 16  1  0
 16 17  1  0
 17 18  1  0
 18 19  1  0
 19 20  1  0
 20 21  1  0
 21 22  2  0
 22 23  1  0
 23 24  2  0
 24 25  1  0
 24 26  1  0
 26 27  2  0
 18 28  1  0
 28 29  1  0
 14  7  1  0
 29 15  1  0
 27 21  1  0
  1 30  1  0
  1 31  1  0
  1 32  1  0
  2 33  1  0
  2 34  1  0
  6 35  1  0
  6 36  1  0
  8 37  1  0
  9 38  1  0
 12 39  1  0
 12 40  1  0
 13 41  1  0
 14 42  1  0
 15 43  1  0
 16 44  1  0
 16 45  1  0
 17 46  1  0
 17 47  1  0
 19 48  1  0
 19 49  1  0
 20 50  1  0
 20 51  1  0
 22 52  1  0
 23 53  1  0
 26 54  1  0
 27 55  1  0
 28 56  1  0
 28 57  1  0
 29 58  1  0
 29 59  1  0
M  END
$$$$

     RDKit          3D

 59 61  0  0  0  0  0  0  0  0999 V2000
  128.0680  172.1950  147.9990 C   0  0  0  0  0  0  0  0  0  0  0  0
  127.1210  170.9880  147.9330 C   0  0  0  0  0  0  0  0  0  0  0  0
  127.7130  169.8870  148.7140 C   0  0  0  0  0  0  0  0  0  0  0  0
  128.6570  169.7500  147.8930 O   0  0  0  0  0  0  0  0  0  0  0  0
  127.2630  169.3070  149.9270 N   0  0  0  0  0  0  0  0  0  0  0  0
  127.8850  169.4500  151.2100 C   0  0  0  0  0  0  0  0  0  0  0  0
  128.3070  170.7810  151.6000 C   0  0  0  0  0  0  0  0  0  0  0  0
  129.6510  171.1170  151.3930 C   0  0  0  0  0  0  0  0  0  0  0  0
  130.1150  172.3620  151.7390 C   0  0  0  0  0  0  0  0  0  0  0  0
  129.3250  173.3100  152.2850 N   0  0  0  0  0  0  0  0  0  0  0  0
  128.0160  173.0000  152.4920 C   0  0  0  0  0  0  0  0  0  0  0  0
  127.1650  174.0640  153.0960 C   0  0  0  0  0  0  0  0  0  0  0  0
  127.9000  174.7430  154.0950 O   0  0  0  0  0  0  0  0  0  0  0  0
  127.5310  171.7480  152.1490 C   0  0  0  0  0  0  0  0  0  0  0  0
  126.0400  168.5020  149.7670 C   0  0  0  0  0  0  0  0  0  0  0  0
  126.2120  167.4020  148.7820 C   0  0  0  0  0  0  0  0  0  0  0  0
  126.0710  166.0140  149.2670 C   0  0  0  0  0  0  0  0  0  0  0  0
  125.1830  165.7950  150.3410 N   0  0  0  0  0  0  0  0  0  0  0  0
  124.4340  164.5950  150.3630 C   0  0  0  0  0  0  0  0  0  0  0  0
  123.7510  164.2140  149.0830 C   0  0  0  0  0  0  0  0  0  0  0  0
  124.0790  162.7650  148.8460 C   0  0  0  0  0  0  0  0  0  0  0  0
  123.1900  161.7160  148.9430 C   0  0  0  0  0  0  0  0  0  0  0  0
  123.5830  160.4270  148.7090 C   0  0  0  0  0  0  0  0  0  0  0  0
  124.8770  160.1130  148.3660 C   0  0  0  0  0  0  0  0  0  0  0  0
  125.2260  158.8300  148.1420 F   0  0  0  0  0  0  0  0  0  0  0  0
  125.8120  161.1190  148.2520 C   0  0  0  0  0  0  0  0  0  0  0  0
  125.3770  162.4070  148.4970 C   0  0  0  0  0  0  0  0  0  0  0  0
  124.5390  166.9140  150.9210 C   0  0  0  0  0  0  0  0  0  0  0  0
  125.4880  168.0770  151.1070 C   0  0  0  0  0  0  0  0  0  0  0  0
  128.2666  172.4481  149.0509 H   0  0  0  0  0  0  0  0  0  0  0  0
  129.0145  171.9464  147.4967 H   0  0  0  0  0  0  0  0  0  0  0  0
  127.6013  173.0551  147.4967 H   0  0  0  0  0  0  0  0  0  0  0  0
  126.1430  171.2598  148.3569 H   0  0  0  0  0  0  0  0  0  0  0  0
  126.9800  170.6758  146.8877 H   0  0  0  0  0  0  0  0  0  0  0  0
  127.1685  169.0959  151.9658 H   0  0  0  0  0  0  0  0  0  0  0  0
  128.8159  168.8683  151.1388 H   0  0  0  0  0  0  0  0  0  0  0  0
  130.3378  170.3800  150.9512 H   0  0  0  0  0  0  0  0  0  0  0  0
  131.1753  172.5966  151.5638 H   0  0  0  0  0  0  0  0  0  0  0  0
  126.8605  174.7772  152.3159 H   0  0  0  0  0  0  0  0  0  0  0  0
  126.2700  173.6081  153.5445 H   0  0  0  0  0  0  0  0  0  0  0  0
  128.5280  175.3400  153.5810 H   0  0  0  0  0  0  0  0  0  0  0  0
  126.4684  171.5287  152.3303 H   0  0  0  0  0  0  0  0  0  0  0  0
  125.2619  169.1384  149.3203 H   0  0  0  0  0  0  0  0  0  0  0  0
  125.4628  167.5505  147.9904 H   0  0  0  0  0  0  0  0  0  0  0  0
  127.2619  167.4782  148.4627 H   0  0  0  0  0  0  0  0  0  0  0  0
  125.7256  165.4011  148.4214 H   0  0  0  0  0  0  0  0  0  0  0  0
  127.0634  165.7480  149.6599 H   0  0  0  0  0  0  0  0  0  0  0  0
  125.1186  163.7776  150.6337 H   0  0  0  0  0  0  0  0  0  0  0  0
  123.6242  164.7681  151.0871 H   0  0  0  0  0  0  0  0  0  0  0  0
  122.6632  164.3481  149.1769 H   0  0  0  0  0  0  0  0  0  0  0  0
  124.0890  164.8430  148.2463 H   0  0  0  0  0  0  0  0  0  0  0  0
  122.1435  161.9197  149.2140 H   0  0  0  0  0  0  0  0  0  0  0  0
  122.8426  159.6183  148.7978 H   0  0  0  0  0  0  0  0  0  0  0  0
  126.8560  160.9062  147.9787 H   0  0  0  0  0  0  0  0  0  0  0  0
  126.1176  163.2156  148.4089 H   0  0  0  0  0  0  0  0  0  0  0  0
  123.7143  167.2293  150.2649 H   0  0  0  0  0  0  0  0  0  0  0  0
  124.1657  166.6167  151.9121 H   0  0  0  0  0  0  0  0  0  0  0  0
  124.9487  168.9196  151.5643 H   0  0  0  0  0  0  0  0  0  0  0  0
  126.3168  167.7701  151.7620 H   0  0  0  0  0  0  0  0  0  0  0  0
  1  2  1  0
  2  3  1  0
  3  4  2  0
  3  5  1  0
  5  6  1  0
  6  7  1  0
  7  8  2  0
  8  9  1  0
  9 10  2  0
 10 11  1  0
 11 12  1  0
 12 13  1  0
 11 14  2  0
  5 15  1  0
 15 16  1  0
 16 17  1  0
 17 18  1  0
 18 19  1  0
 19 20  1  0
 20 21  1  0
 21 22  2  0
 22 23  1  0
 23 24  2  0
 24 25  1  0
 24 26  1  0
 26 27  2  0
 18 28  1  0
 28 29  1  0
 14  7  1  0
 29 15  1  0
 27 21  1  0
  1 30  1  0
  1 31  1  0
  1 32  1  0
  2 33  1  0
  2 34  1  0
  6 35  1  0
  6 36  1  0
  8 37  1  0
  9 38  1  0
 12 39  1  0
 12 40  1  0
 13 41  1  0
 14 42  1  0
 15 43  1  0
 16 44  1  0
 16 45  1  0
 17 46  1  0
 17 47  1  0
 19 48  1  0
 19 49  1  0
 20 50  1  0
 20 51  1  0
 22 52  1  0
 23 53  1  0
 26 54  1  0
 27 55  1  0
 28 56  1  0
 28 57  1  0
 29 58  1  0
 29 59  1  0
M  END
$$$$

     RDKit          3D

 59 61  0  0  0  0  0  0  0  0999 V2000
  122.5150  166.6690  148.9670 C   0  0  0  0  0  0  0  0  0  0  0  0
  123.8970  167.2510  148.6370 C   0  0  0  0  0  0  0  0  0  0  0  0
  124.6930  167.2950  149.8780 C   0  0  0  0  0  0  0  0  0  0  0  0
  124.4970  168.5300  150.0150 O   0  0  0  0  0  0  0  0  0  0  0  0
  125.3690  166.2420  150.5450 N   0  0  0  0  0  0  0  0  0  0  0  0
  126.1320  165.2020  149.9200 C   0  0  0  0  0  0  0  0  0  0  0  0
  125.6280  163.8470  150.0340 C   0  0  0  0  0  0  0  0  0  0  0  0
  126.2510  163.0050  150.9630 C   0  0  0  0  0  0  0  0  0  0  0  0
  125.8210  161.7100  151.1220 C   0  0  0  0  0  0  0  0  0  0  0  0
  124.8000  161.1870  150.4100 N   0  0  0  0  0  0  0  0  0  0  0  0
  124.1830  161.9930  149.5040 C   0  0  0  0  0  0  0  0  0  0  0  0
  123.0590  161.3920  148.7310 C   0  0  0  0  0  0  0  0  0  0  0  0
  122.9010  160.0390  149.1080 O   0  0  0  0  0  0  0  0  0  0  0  0
  124.6040  163.3030  149.3310 C   0  0  0  0  0  0  0  0  0  0  0  0
  125.2270  166.2970  152.0100 C   0  0  0  0  0  0  0  0  0  0  0  0
  126.0300  167.3900  152.6150 C   0  0  0  0  0  0  0  0  0  0  0  0
  125.3080  168.4610  153.3330 C   0  0  0  0  0  0  0  0  0  0  0  0
  124.1030  168.1060  153.9730 N   0  0  0  0  0  0  0  0  0  0  0  0
  123.7820  168.7300  155.2010 C   0  0  0  0  0  0  0  0  0  0  0  0
  124.9390  169.1230  156.0700 C   0  0  0  0  0  0  0  0  0  0  0  0
  125.3440  167.8830  156.8190 C   0  0  0  0  0  0  0  0  0  0  0  0
  124.4800  166.9580  157.3640 C   0  0  0  0  0  0  0  0  0  0  0  0
  124.9430  165.8570  158.0290 C   0  0  0  0  0  0  0  0  0  0  0  0
  126.2880  165.6170  158.1880 C   0  0  0  0  0  0  0  0  0  0  0  0
  126.7070  164.5200  158.8510 F   0  0  0  0  0  0  0  0  0  0  0  0
  127.2030  166.5050  157.6650 C   0  0  0  0  0  0  0  0  0  0  0  0
  126.6950  167.6050  157.0000 C   0  0  0  0  0  0  0  0  0  0  0  0
  123.6340  166.7770  153.8370 C   0  0  0  0  0  0  0  0  0  0  0  0
  123.7720  166.2730  152.4170 C   0  0  0  0  0  0  0  0  0  0  0  0
  122.3904  166.6165  150.0587 H   0  0  0  0  0  0  0  0  0  0  0  0
  121.7337  167.3145  148.5394 H   0  0  0  0  0  0  0  0  0  0  0  0
  122.4308  165.6590  148.5394 H   0  0  0  0  0  0  0  0  0  0  0  0
  124.4007  166.6139  147.8951 H   0  0  0  0  0  0  0  0  0  0  0  0
  123.7907  168.2636  148.2205 H   0  0  0  0  0  0  0  0  0  0  0  0
  126.1996  165.4403  148.8483 H   0  0  0  0  0  0  0  0  0  0  0  0
  127.0911  165.1928  150.4586 H   0  0  0  0  0  0  0  0  0  0  0  0
  127.0885  163.3821  151.5683 H   0  0  0  0  0  0  0  0  0  0  0  0
  126.3297  161.0726  151.8602 H   0  0  0  0  0  0  0  0  0  0  0  0
  122.1311  161.9431  148.9439 H   0  0  0  0  0  0  0  0  0  0  0  0
  123.2803  161.4503  147.6551 H   0  0  0  0  0  0  0  0  0  0  0  0
  122.9910  160.0460  150.1110 H   0  0  0  0  0  0  0  0  0  0  0  0
  124.0841  163.9286  148.5905 H   0  0  0  0  0  0  0  0  0  0  0  0
  125.6637  165.3817  152.4361 H   0  0  0  0  0  0  0  0  0  0  0  0
  126.7265  166.9279  153.3301 H   0  0  0  0  0  0  0  0  0  0  0  0
  126.4961  167.8976  151.7577 H   0  0  0  0  0  0  0  0  0  0  0  0
  125.9862  168.8602  154.1015 H   0  0  0  0  0  0  0  0  0  0  0  0
  125.0150  169.1790  152.5528 H   0  0  0  0  0  0  0  0  0  0  0  0
  123.2089  169.6411  154.9740 H   0  0  0  0  0  0  0  0  0  0  0  0
  123.2265  167.9750  155.7767 H   0  0  0  0  0  0  0  0  0  0  0  0
  125.7741  169.4846  155.4520 H   0  0  0  0  0  0  0  0  0  0  0  0
  124.6639  169.9348  156.7594 H   0  0  0  0  0  0  0  0  0  0  0  0
  123.3952  167.1087  157.2618 H   0  0  0  0  0  0  0  0  0  0  0  0
  124.2194  165.1428  158.4489 H   0  0  0  0  0  0  0  0  0  0  0  0
  128.2862  166.3459  157.7717 H   0  0  0  0  0  0  0  0  0  0  0  0
  127.4182  168.3192  156.5794 H   0  0  0  0  0  0  0  0  0  0  0  0
  124.2161  166.1243  154.5042 H   0  0  0  0  0  0  0  0  0  0  0  0
  122.5664  166.7633  154.1016 H   0  0  0  0  0  0  0  0  0  0  0  0
  123.3916  165.2427  152.3556 H   0  0  0  0  0  0  0  0  0  0  0  0
  123.1930  166.9201  151.7417 H   0  0  0  0  0  0  0  0  0  0  0  0
  1  2  1  0
  2  3  1  0
  3  4  2  0
  3  5  1  0
  5  6  1  0
  6  7  1  0
  7  8  2  0
  8  9  1  0
  9 10  2  0
 10 11  1  0
 11 12  1  0
 12 13  1  0
 11 14  2  0
  5 15  1  0
 15 16  1  0
 16 17  1  0
 17 18  1  0
 18 19  1  0
 19 20  1  0
 20 21  1  0
 21 22  2  0
 22 23  1  0
 23 24  2  0
 24 25  1  0
 24 26  1  0
 26 27  2  0
 18 28  1  0
 28 29  1  0
 14  7  1  0
 29 15  1  0
 27 21  1  0
  1 30  1  0
  1 31  1  0
  1 32  1  0
  2 33  1  0
  2 34  1  0
  6 35  1  0
  6 36  1  0
  8 37  1  0
  9 38  1  0
 12 39  1  0
 12 40  1  0
 13 41  1  0
 14 42  1  0
 15 43  1  0
 16 44  1  0
 16 45  1  0
 17 46  1  0
 17 47  1  0
 19 48  1  0
 19 49  1  0
 20 50  1  0
 20 51  1  0
 22 52  1  0
 23 53  1  0
 26 54  1  0
 27 55  1  0
 28 56  1  0
 28 57  1  0
 29 58  1  0
 29 59  1  0
M  END
$$$$

     RDKit          3D

 59 61  0  0  0  0  0  0  0  0999 V2000
  124.6450  169.4850  153.6200 C   0  0  0  0  0  0  0  0  0  0  0  0
  125.3520  169.4400  152.2570 C   0  0  0  0  0  0  0  0  0  0  0  0
  126.1250  168.1880  152.1730 C   0  0  0  0  0  0  0  0  0  0  0  0
  125.4470  167.6530  153.0880 O   0  0  0  0  0  0  0  0  0  0  0  0
  127.2100  167.8620  151.3200 N   0  0  0  0  0  0  0  0  0  0  0  0
  128.4930  168.4990  151.3080 C   0  0  0  0  0  0  0  0  0  0  0  0
  128.5920  169.7830  150.6430 C   0  0  0  0  0  0  0  0  0  0  0  0
  129.4480  170.7370  151.2080 C   0  0  0  0  0  0  0  0  0  0  0  0
  129.5890  171.9730  150.6270 C   0  0  0  0  0  0  0  0  0  0  0  0
  128.9270  172.3330  149.5070 N   0  0  0  0  0  0  0  0  0  0  0  0
  128.0920  171.4180  148.9440 C   0  0  0  0  0  0  0  0  0  0  0  0
  127.3730  171.8390  147.7080 C   0  0  0  0  0  0  0  0  0  0  0  0
  126.5100  170.8000  147.2900 O   0  0  0  0  0  0  0  0  0  0  0  0
  127.9380  170.1650  149.5180 C   0  0  0  0  0  0  0  0  0  0  0  0
  126.9080  166.7560  150.3940 C   0  0  0  0  0  0  0  0  0  0  0  0
  127.0100  165.4270  151.0490 C   0  0  0  0  0  0  0  0  0  0  0  0
  125.7890  164.5990  151.1260 C   0  0  0  0  0  0  0  0  0  0  0  0
  124.8490  164.7420  150.0840 N   0  0  0  0  0  0  0  0  0  0  0  0
  124.1400  163.5970  149.6530 C   0  0  0  0  0  0  0  0  0  0  0  0
  124.6700  162.2720  150.1160 C   0  0  0  0  0  0  0  0  0  0  0  0
  125.0110  161.4970  148.8730 C   0  0  0  0  0  0  0  0  0  0  0  0
  126.0470  160.5970  148.7490 C   0  0  0  0  0  0  0  0  0  0  0  0
  126.2800  159.9380  147.5730 C   0  0  0  0  0  0  0  0  0  0  0  0
  125.4960  160.1380  146.4610 C   0  0  0  0  0  0  0  0  0  0  0  0
  125.7560  159.4690  145.3190 F   0  0  0  0  0  0  0  0  0  0  0  0
  124.4430  161.0250  146.5230 C   0  0  0  0  0  0  0  0  0  0  0  0
  124.2410  161.6710  147.7280 C   0  0  0  0  0  0  0  0  0  0  0  0
  125.1030  165.7040  149.0750 C   0  0  0  0  0  0  0  0  0  0  0  0
  125.6150  167.0050  149.6530 C   0  0  0  0  0  0  0  0  0  0  0  0
  125.3946  169.4373  154.4236 H   0  0  0  0  0  0  0  0  0  0  0  0
  124.0741  170.4213  153.7062 H   0  0  0  0  0  0  0  0  0  0  0  0
  123.9600  168.6286  153.7062 H   0  0  0  0  0  0  0  0  0  0  0  0
  124.6049  169.4698  151.4502 H   0  0  0  0  0  0  0  0  0  0  0  0
  126.0229  170.3053  152.1514 H   0  0  0  0  0  0  0  0  0  0  0  0
  128.7994  168.6445  152.3544 H   0  0  0  0  0  0  0  0  0  0  0  0
  129.1362  167.8269  150.7210 H   0  0  0  0  0  0  0  0  0  0  0  0
  130.0102  170.4947  152.1219 H   0  0  0  0  0  0  0  0  0  0  0  0
  130.2698  172.7002  151.0936 H   0  0  0  0  0  0  0  0  0  0  0  0
  126.7836  172.7441  147.9165 H   0  0  0  0  0  0  0  0  0  0  0  0
  128.1027  172.0528  146.9131 H   0  0  0  0  0  0  0  0  0  0  0  0
  126.9860  170.3780  146.5100 H   0  0  0  0  0  0  0  0  0  0  0  0
  127.2544  169.4485  149.0391 H   0  0  0  0  0  0  0  0  0  0  0  0
  127.6877  166.7287  149.6186 H   0  0  0  0  0  0  0  0  0  0  0  0
  127.7648  164.8471  150.4977 H   0  0  0  0  0  0  0  0  0  0  0  0
  127.2560  165.6540  152.0968 H   0  0  0  0  0  0  0  0  0  0  0  0
  126.1039  163.5452  151.1459 H   0  0  0  0  0  0  0  0  0  0  0  0
  125.2667  164.9454  152.0300 H   0  0  0  0  0  0  0  0  0  0  0  0
  123.1050  163.6884  150.0142 H   0  0  0  0  0  0  0  0  0  0  0  0
  124.2403  163.5858  148.5576 H   0  0  0  0  0  0  0  0  0  0  0  0
  125.5687  162.4159  150.7338 H   0  0  0  0  0  0  0  0  0  0  0  0
  123.9303  161.7377  150.7303 H   0  0  0  0  0  0  0  0  0  0  0  0
  126.6999  160.4045  149.6131 H   0  0  0  0  0  0  0  0  0  0  0  0
  127.1182  159.2280  147.5152 H   0  0  0  0  0  0  0  0  0  0  0  0
  123.7939  161.2101  145.6544 H   0  0  0  0  0  0  0  0  0  0  0  0
  123.4027  162.3808  147.7862 H   0  0  0  0  0  0  0  0  0  0  0  0
  125.8563  165.3019  148.3816 H   0  0  0  0  0  0  0  0  0  0  0  0
  124.1562  165.9110  148.5548 H   0  0  0  0  0  0  0  0  0  0  0  0
  125.7921  167.7229  148.8386 H   0  0  0  0  0  0  0  0  0  0  0  0
  124.8681  167.4147  150.3489 H   0  0  0  0  0  0  0  0  0  0  0  0
  1  2  1  0
  2  3  1  0
  3  4  2  0
  3  5  1  0
  5  6  1  0
  6  7  1  0
  7  8  2  0
  8  9  1  0
  9 10  2  0
 10 11  1  0
 11 12  1  0
 12 13  1  0
 11 14  2  0
  5 15  1  0
 15 16  1  0
 16 17  1  0
 17 18  1  0
 18 19  1  0
 19 20  1  0
 20 21  1  0
 21 22  2  0
 22 23  1  0
 23 24  2  0
 24 25  1  0
 24 26  1  0
 26 27  2  0
 18 28  1  0
 28 29  1  0
 14  7  1  0
 29 15  1  0
 27 21  1  0
  1 30  1  0
  1 31  1  0
  1 32  1  0
  2 33  1  0
  2 34  1  0
  6 35  1  0
  6 36  1  0
  8 37  1  0
  9 38  1  0
 12 39  1  0
 12 40  1  0
 13 41  1  0
 14 42  1  0
 15 43  1  0
 16 44  1  0
 16 45  1  0
 17 46  1  0
 17 47  1  0
 19 48  1  0
 19 49  1  0
 20 50  1  0
 20 51  1  0
 22 52  1  0
 23 53  1  0
 26 54  1  0
 27 55  1  0
 28 56  1  0
 28 57  1  0
 29 58  1  0
 29 59  1  0
M  END
$$$$

     RDKit          3D

 59 61  0  0  0  0  0  0  0  0999 V2000
  129.0930  171.8310  149.8650 C   0  0  0  0  0  0  0  0  0  0  0  0
  129.0450  170.2990  149.9540 C   0  0  0  0  0  0  0  0  0  0  0  0
  127.9370  169.8170  149.1080 C   0  0  0  0  0  0  0  0  0  0  0  0
  128.6260  169.9280  148.0620 O   0  0  0  0  0  0  0  0  0  0  0  0
  126.6310  169.4150  149.4880 N   0  0  0  0  0  0  0  0  0  0  0  0
  125.6840  170.2090  150.2140 C   0  0  0  0  0  0  0  0  0  0  0  0
  125.7090  170.1160  151.6610 C   0  0  0  0  0  0  0  0  0  0  0  0
  126.3670  171.1360  152.3590 C   0  0  0  0  0  0  0  0  0  0  0  0
  126.4270  171.1090  153.7310 C   0  0  0  0  0  0  0  0  0  0  0  0
  125.8700  170.1250  154.4670 N   0  0  0  0  0  0  0  0  0  0  0  0
  125.2260  169.1260  153.8030 C   0  0  0  0  0  0  0  0  0  0  0  0
  124.6190  168.0510  154.6390 C   0  0  0  0  0  0  0  0  0  0  0  0
  123.4760  167.5370  153.9850 O   0  0  0  0  0  0  0  0  0  0  0  0
  125.1560  169.1370  152.4190 C   0  0  0  0  0  0  0  0  0  0  0  0
  126.2960  168.0470  149.0570 C   0  0  0  0  0  0  0  0  0  0  0  0
  126.9200  167.0140  149.9230 C   0  0  0  0  0  0  0  0  0  0  0  0
  126.0240  166.1100  150.6740 C   0  0  0  0  0  0  0  0  0  0  0  0
  124.7800  165.8030  150.0840 N   0  0  0  0  0  0  0  0  0  0  0  0
  124.2510  164.5040  150.2620 C   0  0  0  0  0  0  0  0  0  0  0  0
  123.4760  163.9370  149.1100 C   0  0  0  0  0  0  0  0  0  0  0  0
  124.0680  162.5840  148.8290 C   0  0  0  0  0  0  0  0  0  0  0  0
  125.3420  162.3480  148.3590 C   0  0  0  0  0  0  0  0  0  0  0  0
  125.7930  161.0780  148.1320 C   0  0  0  0  0  0  0  0  0  0  0  0
  125.0030  159.9750  148.3600 C   0  0  0  0  0  0  0  0  0  0  0  0
  125.4840  158.7370  148.1240 F   0  0  0  0  0  0  0  0  0  0  0  0
  123.7190  160.1450  148.8300 C   0  0  0  0  0  0  0  0  0  0  0  0
  123.3000  161.4440  149.0460 C   0  0  0  0  0  0  0  0  0  0  0  0
  124.4460  166.4220  148.8550 C   0  0  0  0  0  0  0  0  0  0  0  0
  124.8090  167.8910  148.8460 C   0  0  0  0  0  0  0  0  0  0  0  0
  129.1063  172.2569  150.8791 H   0  0  0  0  0  0  0  0  0  0  0  0
  130.0012  172.1387  149.3261 H   0  0  0  0  0  0  0  0  0  0  0  0
  128.2058  172.1950  149.3261 H   0  0  0  0  0  0  0  0  0  0  0  0
  129.9957  169.8763  149.5970 H   0  0  0  0  0  0  0  0  0  0  0  0
  128.8875  169.9862  150.9967 H   0  0  0  0  0  0  0  0  0  0  0  0
  125.8617  171.2613  149.9474 H   0  0  0  0  0  0  0  0  0  0  0  0
  124.7003  169.8123  149.9224 H   0  0  0  0  0  0  0  0  0  0  0  0
  126.8378  171.9624  151.8063 H   0  0  0  0  0  0  0  0  0  0  0  0
  126.9513  171.9240  154.2516 H   0  0  0  0  0  0  0  0  0  0  0  0
  125.3513  167.2436  154.7871 H   0  0  0  0  0  0  0  0  0  0  0  0
  124.3285  168.4649  155.6159 H   0  0  0  0  0  0  0  0  0  0  0  0
  123.6460  166.5460  153.9240 H   0  0  0  0  0  0  0  0  0  0  0  0
  124.6284  168.3151  151.9129 H   0  0  0  0  0  0  0  0  0  0  0  0
  126.7485  167.8725  148.0697 H   0  0  0  0  0  0  0  0  0  0  0  0
  127.5546  166.3867  149.2798 H   0  0  0  0  0  0  0  0  0  0  0  0
  127.4489  167.5866  150.6992 H   0  0  0  0  0  0  0  0  0  0  0  0
  126.5613  165.1624  150.8266 H   0  0  0  0  0  0  0  0  0  0  0  0
  125.7750  166.6568  151.5954 H   0  0  0  0  0  0  0  0  0  0  0  0
  125.0920  163.8251  150.4663 H   0  0  0  0  0  0  0  0  0  0  0  0
  123.5276  164.5930  151.0858 H   0  0  0  0  0  0  0  0  0  0  0  0
  122.4133  163.8399  149.3768 H   0  0  0  0  0  0  0  0  0  0  0  0
  123.5355  164.5908  148.2274 H   0  0  0  0  0  0  0  0  0  0  0  0
  126.0098  163.1997  148.1625 H   0  0  0  0  0  0  0  0  0  0  0  0
  126.8167  160.9336  147.7563 H   0  0  0  0  0  0  0  0  0  0  0  0
  123.0585  159.2871  149.0242 H   0  0  0  0  0  0  0  0  0  0  0  0
  122.2757  161.5887  149.4200 H   0  0  0  0  0  0  0  0  0  0  0  0
  124.9893  165.9165  148.0430 H   0  0  0  0  0  0  0  0  0  0  0  0
  123.3580  166.3389  148.7161 H   0  0  0  0  0  0  0  0  0  0  0  0
  124.5285  168.3314  147.8778 H   0  0  0  0  0  0  0  0  0  0  0  0
  124.2695  168.4054  149.6549 H   0  0  0  0  0  0  0  0  0  0  0  0
  1  2  1  0
  2  3  1  0
  3  4  2  0
  3  5  1  0
  5  6  1  0
  6  7  1  0
  7  8  2  0
  8  9  1  0
  9 10  2  0
 10 11  1  0
 11 12  1  0
 12 13  1  0
 11 14  2  0
  5 15  1  0
 15 16  1  0
 16 17  1  0
 17 18  1  0
 18 19  1  0
 19 20  1  0
 20 21  1  0
 21 22  2  0
 22 23  1  0
 23 24  2  0
 24 25  1  0
 24 26  1  0
 26 27  2  0
 18 28  1  0
 28 29  1  0
 14  7  1  0
 29 15  1  0
 27 21  1  0
  1 30  1  0
  1 31  1  0
  1 32  1  0
  2 33  1  0
  2 34  1  0
  6 35  1  0
  6 36  1  0
  8 37  1  0
  9 38  1  0
 12 39  1  0
 12 40  1  0
 13 41  1  0
 14 42  1  0
 15 43  1  0
 16 44  1  0
 16 45  1  0
 17 46  1  0
 17 47  1  0
 19 48  1  0
 19 49  1  0
 20 50  1  0
 20 51  1  0
 22 52  1  0
 23 53  1  0
 26 54  1  0
 27 55  1  0
 28 56  1  0
 28 57  1  0
 29 58  1  0
 29 59  1  0
M  END
$$$$

     RDKit          3D

 59 61  0  0  0  0  0  0  0  0999 V2000
  126.7540  171.4310  147.6410 C   0  0  0  0  0  0  0  0  0  0  0  0
  128.1500  171.5170  148.2750 C   0  0  0  0  0  0  0  0  0  0  0  0
  128.0580  171.0550  149.6720 C   0  0  0  0  0  0  0  0  0  0  0  0
  129.2400  171.4100  149.9160 O   0  0  0  0  0  0  0  0  0  0  0  0
  126.9660  170.4510  150.3450 N   0  0  0  0  0  0  0  0  0  0  0  0
  126.0460  171.1140  151.2210 C   0  0  0  0  0  0  0  0  0  0  0  0
  126.5160  171.4460  152.5520 C   0  0  0  0  0  0  0  0  0  0  0  0
  126.1730  170.5740  153.5920 C   0  0  0  0  0  0  0  0  0  0  0  0
  126.5870  170.8290  154.8770 C   0  0  0  0  0  0  0  0  0  0  0  0
  127.3300  171.9070  155.2030 N   0  0  0  0  0  0  0  0  0  0  0  0
  127.6740  172.7650  154.2030 C   0  0  0  0  0  0  0  0  0  0  0  0
  128.4950  173.9480  154.5890 C   0  0  0  0  0  0  0  0  0  0  0  0
  129.0760  173.7220  155.8580 O   0  0  0  0  0  0  0  0  0  0  0  0
  127.2630  172.5220  152.9010 C   0  0  0  0  0  0  0  0  0  0  0  0
  126.8340  169.0110  150.0620 C   0  0  0  0  0  0  0  0  0  0  0  0
  127.5830  168.1740  151.0350 C   0  0  0  0  0  0  0  0  0  0  0  0
  126.8120  167.2370  151.8760 C   0  0  0  0  0  0  0  0  0  0  0  0
  125.6330  166.6960  151.3220 N   0  0  0  0  0  0  0  0  0  0  0  0
  125.2910  165.3610  151.6370 C   0  0  0  0  0  0  0  0  0  0  0  0
  126.1200  164.2910  150.9920 C   0  0  0  0  0  0  0  0  0  0  0  0
  125.1520  163.3460  150.3340 C   0  0  0  0  0  0  0  0  0  0  0  0
  124.2410  163.6850  149.3570 C   0  0  0  0  0  0  0  0  0  0  0  0
  123.3980  162.7540  148.8170 C   0  0  0  0  0  0  0  0  0  0  0  0
  123.4170  161.4380  149.2170 C   0  0  0  0  0  0  0  0  0  0  0  0
  122.5700  160.5480  148.6600 F   0  0  0  0  0  0  0  0  0  0  0  0
  124.3070  161.0370  150.1900 C   0  0  0  0  0  0  0  0  0  0  0  0
  125.1410  162.0080  150.7110 C   0  0  0  0  0  0  0  0  0  0  0  0
  125.2350  167.1280  150.0340 C   0  0  0  0  0  0  0  0  0  0  0  0
  125.3870  168.6240  149.8680 C   0  0  0  0  0  0  0  0  0  0  0  0
  125.9933  171.3841  148.4342 H   0  0  0  0  0  0  0  0  0  0  0  0
  126.5791  172.3201  147.0173 H   0  0  0  0  0  0  0  0  0  0  0  0
  126.6896  170.5272  147.0173 H   0  0  0  0  0  0  0  0  0  0  0  0
  128.8506  170.8776  147.7180 H   0  0  0  0  0  0  0  0  0  0  0  0
  128.5150  172.5542  148.2441 H   0  0  0  0  0  0  0  0  0  0  0  0
  125.7440  172.0527  150.7336 H   0  0  0  0  0  0  0  0  0  0  0  0
  125.2355  170.3877  151.3810 H   0  0  0  0  0  0  0  0  0  0  0  0
  125.5687  169.6798  153.3792 H   0  0  0  0  0  0  0  0  0  0  0  0
  126.3010  170.1254  155.6727 H   0  0  0  0  0  0  0  0  0  0  0  0
  129.2893  174.1025  153.8439 H   0  0  0  0  0  0  0  0  0  0  0  0
  127.8549  174.8416  154.6316 H   0  0  0  0  0  0  0  0  0  0  0  0
  128.3940  174.0720  156.5110 H   0  0  0  0  0  0  0  0  0  0  0  0
  127.5564  173.2346  152.1160 H   0  0  0  0  0  0  0  0  0  0  0  0
  127.3224  168.7995  149.0993 H   0  0  0  0  0  0  0  0  0  0  0  0
  128.3106  167.5789  150.4636 H   0  0  0  0  0  0  0  0  0  0  0  0
  128.0123  168.8947  151.7465 H   0  0  0  0  0  0  0  0  0  0  0  0
  127.4751  166.3965  152.1288 H   0  0  0  0  0  0  0  0  0  0  0  0
  126.4736  167.8373  152.7334 H   0  0  0  0  0  0  0  0  0  0  0  0
  125.3789  165.2412  152.7269 H   0  0  0  0  0  0  0  0  0  0  0  0
  124.2734  165.2193  151.2440 H   0  0  0  0  0  0  0  0  0  0  0  0
  126.7927  164.7311  150.2411 H   0  0  0  0  0  0  0  0  0  0  0  0
  126.7467  163.7707  151.7313 H   0  0  0  0  0  0  0  0  0  0  0  0
  124.1912  164.7258  149.0045 H   0  0  0  0  0  0  0  0  0  0  0  0
  122.6842  163.0662  148.0405 H   0  0  0  0  0  0  0  0  0  0  0  0
  124.3514  159.9936  150.5355 H   0  0  0  0  0  0  0  0  0  0  0  0
  125.8548  161.6965  151.4879 H   0  0  0  0  0  0  0  0  0  0  0  0
  125.8572  166.6218  149.2812 H   0  0  0  0  0  0  0  0  0  0  0  0
  124.1719  166.8772  149.9040 H   0  0  0  0  0  0  0  0  0  0  0  0
  125.0625  168.9151  148.8581 H   0  0  0  0  0  0  0  0  0  0  0  0
  124.7675  169.1394  150.6168 H   0  0  0  0  0  0  0  0  0  0  0  0
  1  2  1  0
  2  3  1  0
  3  4  2  0
  3  5  1  0
  5  6  1  0
  6  7  1  0
  7  8  2  0
  8  9  1  0
  9 10  2  0
 10 11  1  0
 11 12  1  0
 12 13  1  0
 11 14  2  0
  5 15  1  0
 15 16  1  0
 16 17  1  0
 17 18  1  0
 18 19  1  0
 19 20  1  0
 20 21  1  0
 21 22  2  0
 22 23  1  0
 23 24  2  0
 24 25  1  0
 24 26  1  0
 26 27  2  0
 18 28  1  0
 28 29  1  0
 14  7  1  0
 29 15  1  0
 27 21  1  0
  1 30  1  0
  1 31  1  0
  1 32  1  0
  2 33  1  0
  2 34  1  0
  6 35  1  0
  6 36  1  0
  8 37  1  0
  9 38  1  0
 12 39  1  0
 12 40  1  0
 13 41  1  0
 14 42  1  0
 15 43  1  0
 16 44  1  0
 16 45  1  0
 17 46  1  0
 17 47  1  0
 19 48  1  0
 19 49  1  0
 20 50  1  0
 20 51  1  0
 22 52  1  0
 23 53  1  0
 26 54  1  0
 27 55  1  0
 28 56  1  0
 28 57  1  0
 29 58  1  0
 29 59  1  0
M  END
$$$$

     RDKit          3D

 59 61  0  0  0  0  0  0  0  0999 V2000
  126.5090  171.2620  151.2110 C   0  0  0  0  0  0  0  0  0  0  0  0
  125.3560  170.4430  150.6130 C   0  0  0  0  0  0  0  0  0  0  0  0
  125.9130  169.2080  150.0320 C   0  0  0  0  0  0  0  0  0  0  0  0
  126.3600  169.8260  149.0310 O   0  0  0  0  0  0  0  0  0  0  0  0
  125.8750  167.8840  150.5380 N   0  0  0  0  0  0  0  0  0  0  0  0
  126.1880  167.4860  151.8780 C   0  0  0  0  0  0  0  0  0  0  0  0
  125.1720  167.7010  152.8900 C   0  0  0  0  0  0  0  0  0  0  0  0
  124.1390  166.7590  152.9770 C   0  0  0  0  0  0  0  0  0  0  0  0
  123.1460  166.9040  153.9140 C   0  0  0  0  0  0  0  0  0  0  0  0
  123.1070  167.9350  154.7840 N   0  0  0  0  0  0  0  0  0  0  0  0
  124.1040  168.8590  154.7140 C   0  0  0  0  0  0  0  0  0  0  0  0
  124.0390  169.9880  155.6850 C   0  0  0  0  0  0  0  0  0  0  0  0
  122.7760  169.9890  156.3200 O   0  0  0  0  0  0  0  0  0  0  0  0
  125.1150  168.7290  153.7730 C   0  0  0  0  0  0  0  0  0  0  0  0
  125.4660  166.8890  149.5310 C   0  0  0  0  0  0  0  0  0  0  0  0
  126.1560  165.5860  149.7120 C   0  0  0  0  0  0  0  0  0  0  0  0
  125.3260  164.4020  150.0150 C   0  0  0  0  0  0  0  0  0  0  0  0
  124.0200  164.3800  149.4850 N   0  0  0  0  0  0  0  0  0  0  0  0
  123.4860  163.1410  149.0600 C   0  0  0  0  0  0  0  0  0  0  0  0
  124.2280  161.9120  149.4920 C   0  0  0  0  0  0  0  0  0  0  0  0
  124.7950  161.3000  148.2410 C   0  0  0  0  0  0  0  0  0  0  0  0
  126.0260  160.6880  148.1350 C   0  0  0  0  0  0  0  0  0  0  0  0
  126.4570  160.1590  146.9500 C   0  0  0  0  0  0  0  0  0  0  0  0
  125.6890  160.2090  145.8090 C   0  0  0  0  0  0  0  0  0  0  0  0
  126.1490  159.6750  144.6590 F   0  0  0  0  0  0  0  0  0  0  0  0
  124.4480  160.8070  145.8520 C   0  0  0  0  0  0  0  0  0  0  0  0
  124.0490  161.3300  147.0680 C   0  0  0  0  0  0  0  0  0  0  0  0
  123.5690  165.5080  148.7570 C   0  0  0  0  0  0  0  0  0  0  0  0
  123.9610  166.8060  149.4280 C   0  0  0  0  0  0  0  0  0  0  0  0
  126.4551  171.2237  152.3090 H   0  0  0  0  0  0  0  0  0  0  0  0
  127.4691  170.8423  150.8762 H   0  0  0  0  0  0  0  0  0  0  0  0
  126.4289  172.3067  150.8762 H   0  0  0  0  0  0  0  0  0  0  0  0
  124.6329  170.1888  151.4020 H   0  0  0  0  0  0  0  0  0  0  0  0
  124.8417  171.0271  149.8356 H   0  0  0  0  0  0  0  0  0  0  0  0
  126.4128  166.4094  151.8590 H   0  0  0  0  0  0  0  0  0  0  0  0
  127.0256  168.1335  152.1766 H   0  0  0  0  0  0  0  0  0  0  0  0
  124.1233  165.8990  152.2914 H   0  0  0  0  0  0  0  0  0  0  0  0
  122.3484  166.1478  153.9574 H   0  0  0  0  0  0  0  0  0  0  0  0
  124.8295  169.8683  156.4405 H   0  0  0  0  0  0  0  0  0  0  0  0
  124.1832  170.9396  155.1523 H   0  0  0  0  0  0  0  0  0  0  0  0
  122.8930  169.3780  157.1120 H   0  0  0  0  0  0  0  0  0  0  0  0
  125.9054  169.4934  153.7416 H   0  0  0  0  0  0  0  0  0  0  0  0
  125.8065  167.2332  148.5433 H   0  0  0  0  0  0  0  0  0  0  0  0
  126.7038  165.3731  148.7821 H   0  0  0  0  0  0  0  0  0  0  0  0
  126.7777  165.7246  150.6088 H   0  0  0  0  0  0  0  0  0  0  0  0
  125.8553  163.5187  149.6283 H   0  0  0  0  0  0  0  0  0  0  0  0
  125.1896  164.4221  151.1063 H   0  0  0  0  0  0  0  0  0  0  0  0
  122.4602  163.0671  149.4503 H   0  0  0  0  0  0  0  0  0  0  0  0
  123.5559  163.1538  147.9623 H   0  0  0  0  0  0  0  0  0  0  0  0
  125.0383  162.1804  150.1858 H   0  0  0  0  0  0  0  0  0  0  0  0
  123.5649  161.2082  150.0164 H   0  0  0  0  0  0  0  0  0  0  0  0
  126.6743  160.6240  149.0214 H   0  0  0  0  0  0  0  0  0  0  0  0
  127.4461  159.6796  146.9074 H   0  0  0  0  0  0  0  0  0  0  0  0
  123.8055  160.8654  144.9611 H   0  0  0  0  0  0  0  0  0  0  0  0
  123.0599  161.8094  147.1111 H   0  0  0  0  0  0  0  0  0  0  0  0
  124.0103  165.4809  147.7498 H   0  0  0  0  0  0  0  0  0  0  0  0
  122.4708  165.4666  148.7100 H   0  0  0  0  0  0  0  0  0  0  0  0
  123.5875  167.6528  148.8335 H   0  0  0  0  0  0  0  0  0  0  0  0
  123.5233  166.8426  150.4365 H   0  0  0  0  0  0  0  0  0  0  0  0
  1  2  1  0
  2  3  1  0
  3  4  2  0
  3  5  1  0
  5  6  1  0
  6  7  1  0
  7  8  2  0
  8  9  1  0
  9 10  2  0
 10 11  1  0
 11 12  1  0
 12 13  1  0
 11 14  2  0
  5 15  1  0
 15 16  1  0
 16 17  1  0
 17 18  1  0
 18 19  1  0
 19 20  1  0
 20 21  1  0
 21 22  2  0
 22 23  1  0
 23 24  2  0
 24 25  1  0
 24 26  1  0
 26 27  2  0
 18 28  1  0
 28 29  1  0
 14  7  1  0
 29 15  1  0
 27 21  1  0
  1 30  1  0
  1 31  1  0
  1 32  1  0
  2 33  1  0
  2 34  1  0
  6 35  1  0
  6 36  1  0
  8 37  1  0
  9 38  1  0
 12 39  1  0
 12 40  1  0
 13 41  1  0
 14 42  1  0
 15 43  1  0
 16 44  1  0
 16 45  1  0
 17 46  1  0
 17 47  1  0
 19 48  1  0
 19 49  1  0
 20 50  1  0
 20 51  1  0
 22 52  1  0
 23 53  1  0
 26 54  1  0
 27 55  1  0
 28 56  1  0
 28 57  1  0
 29 58  1  0
 29 59  1  0
M  END
$$$$

     RDKit          3D

 59 61  0  0  0  0  0  0  0  0999 V2000
  122.3970  166.2330  149.2080 C   0  0  0  0  0  0  0  0  0  0  0  0
  123.0870  164.8670  149.3330 C   0  0  0  0  0  0  0  0  0  0  0  0
  124.0960  164.9490  150.4040 C   0  0  0  0  0  0  0  0  0  0  0  0
  123.3090  165.5740  151.1620 O   0  0  0  0  0  0  0  0  0  0  0  0
  125.4250  164.4550  150.4220 N   0  0  0  0  0  0  0  0  0  0  0  0
  125.8160  163.1000  150.6750 C   0  0  0  0  0  0  0  0  0  0  0  0
  125.3250  162.0840  149.7650 C   0  0  0  0  0  0  0  0  0  0  0  0
  124.2810  161.2660  150.2160 C   0  0  0  0  0  0  0  0  0  0  0  0
  123.7690  160.2850  149.4030 C   0  0  0  0  0  0  0  0  0  0  0  0
  124.2280  160.0580  148.1540 N   0  0  0  0  0  0  0  0  0  0  0  0
  125.2410  160.8450  147.7000 C   0  0  0  0  0  0  0  0  0  0  0  0
  125.7310  160.5740  146.3180 C   0  0  0  0  0  0  0  0  0  0  0  0
  125.3880  159.2530  145.9500 O   0  0  0  0  0  0  0  0  0  0  0  0
  125.7710  161.8400  148.5080 C   0  0  0  0  0  0  0  0  0  0  0  0
  126.4330  165.4920  150.1430 C   0  0  0  0  0  0  0  0  0  0  0  0
  126.0810  166.3190  148.9600 C   0  0  0  0  0  0  0  0  0  0  0  0
  125.8560  167.7640  149.1700 C   0  0  0  0  0  0  0  0  0  0  0  0
  126.5850  168.3850  150.2050 N   0  0  0  0  0  0  0  0  0  0  0  0
  127.0280  169.7140  150.0150 C   0  0  0  0  0  0  0  0  0  0  0  0
  126.0560  170.7970  150.3770 C   0  0  0  0  0  0  0  0  0  0  0  0
  125.8980  170.7390  151.8720 C   0  0  0  0  0  0  0  0  0  0  0  0
  125.0050  169.9400  152.5530 C   0  0  0  0  0  0  0  0  0  0  0  0
  124.9340  169.9560  153.9180 C   0  0  0  0  0  0  0  0  0  0  0  0
  125.7460  170.7650  154.6790 C   0  0  0  0  0  0  0  0  0  0  0  0
  125.6460  170.7520  156.0240 F   0  0  0  0  0  0  0  0  0  0  0  0
  126.6610  171.5860  154.0560 C   0  0  0  0  0  0  0  0  0  0  0  0
  126.7010  171.5410  152.6750 C   0  0  0  0  0  0  0  0  0  0  0  0
  127.4300  167.5810  151.0090 C   0  0  0  0  0  0  0  0  0  0  0  0
  126.7690  166.2750  151.3910 C   0  0  0  0  0  0  0  0  0  0  0  0
  122.1942  166.6346  150.2118 H   0  0  0  0  0  0  0  0  0  0  0  0
  123.0529  166.9265  148.6613 H   0  0  0  0  0  0  0  0  0  0  0  0
  121.4496  166.1166  148.6613 H   0  0  0  0  0  0  0  0  0  0  0  0
  122.3425  164.0967  149.5828 H   0  0  0  0  0  0  0  0  0  0  0  0
  123.5688  164.5996  148.3810 H   0  0  0  0  0  0  0  0  0  0  0  0
  126.9151  163.0632  150.6490 H   0  0  0  0  0  0  0  0  0  0  0  0
  125.3617  162.8522  151.6457 H   0  0  0  0  0  0  0  0  0  0  0  0
  123.8696  161.4102  151.2259 H   0  0  0  0  0  0  0  0  0  0  0  0
  122.9504  159.6577  149.7856 H   0  0  0  0  0  0  0  0  0  0  0  0
  125.2653  161.2830  145.6176 H   0  0  0  0  0  0  0  0  0  0  0  0
  126.8241  160.6930  146.2852 H   0  0  0  0  0  0  0  0  0  0  0  0
  124.7230  159.3670  145.2010 H   0  0  0  0  0  0  0  0  0  0  0  0
  126.5895  162.4586  148.1114 H   0  0  0  0  0  0  0  0  0  0  0  0
  127.3695  164.9953  149.8495 H   0  0  0  0  0  0  0  0  0  0  0  0
  126.9005  166.2171  148.2333 H   0  0  0  0  0  0  0  0  0  0  0  0
  125.1046  165.9320  148.6331 H   0  0  0  0  0  0  0  0  0  0  0  0
  126.1098  168.2785  148.2314 H   0  0  0  0  0  0  0  0  0  0  0  0
  124.8026  167.8459  149.4759 H   0  0  0  0  0  0  0  0  0  0  0  0
  127.9314  169.8566  150.6261 H   0  0  0  0  0  0  0  0  0  0  0  0
  127.1911  169.8166  148.9320 H   0  0  0  0  0  0  0  0  0  0  0  0
  126.4487  171.7786  150.0732 H   0  0  0  0  0  0  0  0  0  0  0  0
  125.0916  170.6560  149.8669 H   0  0  0  0  0  0  0  0  0  0  0  0
  124.3357  169.2758  151.9865 H   0  0  0  0  0  0  0  0  0  0  0  0
  124.2066  169.3031  154.4226 H   0  0  0  0  0  0  0  0  0  0  0  0
  127.3278  172.2458  154.6305 H   0  0  0  0  0  0  0  0  0  0  0  0
  127.4282  172.1936  152.1697 H   0  0  0  0  0  0  0  0  0  0  0  0
  128.3514  167.3629  150.4492 H   0  0  0  0  0  0  0  0  0  0  0  0
  127.6496  168.1353  151.9334 H   0  0  0  0  0  0  0  0  0  0  0  0
  127.4554  165.6871  152.0181 H   0  0  0  0  0  0  0  0  0  0  0  0
  125.8453  166.4834  151.9508 H   0  0  0  0  0  0  0  0  0  0  0  0
  1  2  1  0
  2  3  1  0
  3  4  2  0
  3  5  1  0
  5  6  1  0
  6  7  1  0
  7  8  2  0
  8  9  1  0
  9 10  2  0
 10 11  1  0
 11 12  1  0
 12 13  1  0
 11 14  2  0
  5 15  1  0
 15 16  1  0
 16 17  1  0
 17 18  1  0
 18 19  1  0
 19 20  1  0
 20 21  1  0
 21 22  2  0
 22 23  1  0
 23 24  2  0
 24 25  1  0
 24 26  1  0
 26 27  2  0
 18 28  1  0
 28 29  1  0
 14  7  1  0
 29 15  1  0
 27 21  1  0
  1 30  1  0
  1 31  1  0
  1 32  1  0
  2 33  1  0
  2 34  1  0
  6 35  1  0
  6 36  1  0
  8 37  1  0
  9 38  1  0
 12 39  1  0
 12 40  1  0
 13 41  1  0
 14 42  1  0
 15 43  1  0
 16 44  1  0
 16 45  1  0
 17 46  1  0
 17 47  1  0
 19 48  1  0
 19 49  1  0
 20 50  1  0
 20 51  1  0
 22 52  1  0
 23 53  1  0
 26 54  1  0
 27 55  1  0
 28 56  1  0
 28 57  1  0
 29 58  1  0
 29 59  1  0
M  END
$$$$

