MODEL 1
REMARK VINA RESULT:    -8.426      0.000      0.000
REMARK INTER + INTRA:         -14.240
REMARK INTER:                 -13.105
REMARK INTRA:                  -1.136
REMARK UNBOUND:                -1.136
REMARK SMILES CCC(=O)N(Cc1ccnc(CO)c1)C1CCN(CCc2ccc(F)cc2)CC1
REMARK SMILES IDX 5 1 3 2 4 3 2 4 1 5 6 6 7 7 14 8 8 9 11 10 9 11 10 12 12 13
REMARK SMILES IDX 13 14 15 16 16 17 29 18 17 19 28 20 18 21 19 22 20 23 21 24
REMARK SMILES IDX 22 25 27 26 23 27 26 28 24 29 25 30
REMARK H PARENT 13 15
REMARK Flexibility Score: inf
ROOT
ATOM      1  N   UNL     1     125.093 164.585 150.210  1.00  0.00    -0.335 N 
ENDROOT
BRANCH   1   2
ATOM      2  C   UNL     1     123.922 164.822 149.447  1.00  0.00     0.222 C 
ATOM      3  O   UNL     1     123.499 164.629 148.278  1.00  0.00    -0.275 OA
BRANCH   2   4
ATOM      4  C   UNL     1     122.659 165.462 149.857  1.00  0.00     0.097 C 
ATOM      5  C   UNL     1     122.350 166.602 148.875  1.00  0.00     0.014 C 
ENDBRANCH   2   4
ENDBRANCH   1   2
BRANCH   1   6
ATOM      6  C   UNL     1     125.602 163.301 150.594  1.00  0.00     0.155 C 
BRANCH   6   7
ATOM      7  C   UNL     1     125.287 162.176 149.736  1.00  0.00    -0.025 A 
ATOM      8  C   UNL     1     125.880 161.867 148.556  1.00  0.00     0.031 A 
ATOM      9  C   UNL     1     124.266 161.313 150.154  1.00  0.00     0.025 A 
ATOM     10  C   UNL     1     125.514 160.769 147.793  1.00  0.00     0.066 A 
ATOM     11  C   UNL     1     123.917 160.229 149.387  1.00  0.00     0.112 A 
ATOM     12  N   UNL     1     124.521 159.939 148.215  1.00  0.00    -0.259 NA
BRANCH  10  13
ATOM     13  C   UNL     1     126.165 160.427 146.496  1.00  0.00     0.212 C 
BRANCH  13  14
ATOM     14  O   UNL     1     125.173 160.086 145.549  1.00  0.00    -0.390 OA
ATOM     15  H   UNL     1     124.999 159.107 145.710  1.00  0.00     0.211 HD
ENDBRANCH  13  14
ENDBRANCH  10  13
ENDBRANCH   6   7
ENDBRANCH   1   6
BRANCH   1  16
ATOM     16  C   UNL     1     125.792 165.821 150.601  1.00  0.00     0.088 C 
ATOM     17  C   UNL     1     126.108 166.685 149.434  1.00  0.00     0.041 C 
ATOM     18  C   UNL     1     125.075 166.517 151.734  1.00  0.00     0.041 C 
ATOM     19  C   UNL     1     125.495 168.028 149.384  1.00  0.00     0.086 C 
ATOM     20  C   UNL     1     125.524 167.959 151.810  1.00  0.00     0.086 C 
ATOM     21  N   UNL     1     125.240 168.665 150.616  1.00  0.00    -0.303 NA
BRANCH  21  22
ATOM     22  C   UNL     1     125.401 170.067 150.696  1.00  0.00     0.089 C 
BRANCH  22  23
ATOM     23  C   UNL     1     126.657 170.556 151.355  1.00  0.00     0.051 C 
BRANCH  23  24
ATOM     24  C   UNL     1     127.453 171.246 150.282  1.00  0.00    -0.047 A 
ATOM     25  C   UNL     1     127.196 171.188 148.929  1.00  0.00     0.007 A 
ATOM     26  C   UNL     1     128.552 172.021 150.640  1.00  0.00     0.007 A 
ATOM     27  C   UNL     1     127.979 171.852 148.027  1.00  0.00     0.039 A 
ATOM     28  C   UNL     1     129.367 172.707 149.759  1.00  0.00     0.039 A 
ATOM     29  C   UNL     1     129.059 172.609 148.420  1.00  0.00     0.123 A 
ATOM     30  F   UNL     1     129.808 173.249 147.499  1.00  0.00    -0.207 F 
ENDBRANCH  23  24
ENDBRANCH  22  23
ENDBRANCH  21  22
ENDBRANCH   1  16
TORSDOF 10
ENDMDL
MODEL 2
REMARK VINA RESULT:    -8.389      3.907      8.772
REMARK INTER + INTRA:         -14.183
REMARK INTER:                 -12.700
REMARK INTRA:                  -1.483
REMARK UNBOUND:                -1.136
REMARK SMILES CCC(=O)N(Cc1ccnc(CO)c1)C1CCN(CCc2ccc(F)cc2)CC1
REMARK SMILES IDX 5 1 3 2 4 3 2 4 1 5 6 6 7 7 14 8 8 9 11 10 9 11 10 12 12 13
REMARK SMILES IDX 13 14 15 16 16 17 29 18 17 19 28 20 18 21 19 22 20 23 21 24
REMARK SMILES IDX 22 25 27 26 23 27 26 28 24 29 25 30
REMARK H PARENT 13 15
REMARK Flexibility Score: inf
ROOT
ATOM      1  N   UNL     1     125.469 167.526 151.529  1.00  0.00    -0.335 N 
ENDROOT
BRANCH   1   2
ATOM      2  C   UNL     1     126.589 167.677 152.386  1.00  0.00     0.222 C 
ATOM      3  O   UNL     1     126.843 167.682 153.618  1.00  0.00    -0.275 OA
BRANCH   2   4
ATOM      4  C   UNL     1     128.003 167.909 152.038  1.00  0.00     0.097 C 
ATOM      5  C   UNL     1     128.723 166.554 152.004  1.00  0.00     0.014 C 
ENDBRANCH   2   4
ENDBRANCH   1   2
BRANCH   1   6
ATOM      6  C   UNL     1     124.921 168.536 150.673  1.00  0.00     0.155 C 
BRANCH   6   7
ATOM      7  C   UNL     1     125.733 168.974 149.555  1.00  0.00    -0.025 A 
ATOM      8  C   UNL     1     126.333 170.182 149.415  1.00  0.00     0.031 A 
ATOM      9  C   UNL     1     125.926 168.068 148.505  1.00  0.00     0.025 A 
ATOM     10  C   UNL     1     127.095 170.521 148.307  1.00  0.00     0.066 A 
ATOM     11  C   UNL     1     126.684 168.419 147.415  1.00  0.00     0.112 A 
ATOM     12  N   UNL     1     127.273 169.628 147.296  1.00  0.00    -0.259 NA
BRANCH  10  13
ATOM     13  C   UNL     1     127.756 171.848 148.151  1.00  0.00     0.212 C 
BRANCH  13  14
ATOM     14  O   UNL     1     128.705 172.025 149.185  1.00  0.00    -0.390 OA
ATOM     15  H   UNL     1     128.330 172.775 149.743  1.00  0.00     0.211 HD
ENDBRANCH  13  14
ENDBRANCH  10  13
ENDBRANCH   6   7
ENDBRANCH   1   6
BRANCH   1  16
ATOM     16  C   UNL     1     124.877 166.178 151.581  1.00  0.00     0.088 C 
ATOM     17  C   UNL     1     123.503 166.143 151.014  1.00  0.00     0.041 C 
ATOM     18  C   UNL     1     125.825 165.144 151.021  1.00  0.00     0.041 C 
ATOM     19  C   UNL     1     123.269 165.300 149.824  1.00  0.00     0.086 C 
ATOM     20  C   UNL     1     125.057 163.889 150.667  1.00  0.00     0.086 C 
ATOM     21  N   UNL     1     124.058 164.138 149.694  1.00  0.00    -0.303 NA
BRANCH  21  22
ATOM     22  C   UNL     1     123.469 162.982 149.132  1.00  0.00     0.089 C 
BRANCH  22  23
ATOM     23  C   UNL     1     124.120 161.673 149.468  1.00  0.00     0.051 C 
BRANCH  23  24
ATOM     24  C   UNL     1     124.748 161.176 148.196  1.00  0.00    -0.047 A 
ATOM     25  C   UNL     1     126.017 160.651 148.081  1.00  0.00     0.007 A 
ATOM     26  C   UNL     1     124.023 161.230 147.010  1.00  0.00     0.007 A 
ATOM     27  C   UNL     1     126.503 160.223 146.876  1.00  0.00     0.039 A 
ATOM     28  C   UNL     1     124.478 160.807 145.775  1.00  0.00     0.039 A 
ATOM     29  C   UNL     1     125.755 160.293 145.724  1.00  0.00     0.123 A 
ATOM     30  F   UNL     1     126.269 159.861 144.555  1.00  0.00    -0.207 F 
ENDBRANCH  23  24
ENDBRANCH  22  23
ENDBRANCH  21  22
ENDBRANCH   1  16
TORSDOF 10
ENDMDL
MODEL 3
REMARK VINA RESULT:    -8.103      3.986      9.606
REMARK INTER + INTRA:         -13.739
REMARK INTER:                 -12.523
REMARK INTRA:                  -1.216
REMARK UNBOUND:                -1.136
REMARK SMILES CCC(=O)N(Cc1ccnc(CO)c1)C1CCN(CCc2ccc(F)cc2)CC1
REMARK SMILES IDX 5 1 3 2 4 3 2 4 1 5 6 6 7 7 14 8 8 9 11 10 9 11 10 12 12 13
REMARK SMILES IDX 13 14 15 16 16 17 29 18 17 19 28 20 18 21 19 22 20 23 21 24
REMARK SMILES IDX 22 25 27 26 23 27 26 28 24 29 25 30
REMARK H PARENT 13 15
REMARK Flexibility Score: inf
ROOT
ATOM      1  N   UNL     1     125.800 168.679 150.379  1.00  0.00    -0.335 N 
ENDROOT
BRANCH   1   2
ATOM      2  C   UNL     1     126.530 168.030 151.407  1.00  0.00     0.222 C 
ATOM      3  O   UNL     1     126.308 167.305 152.411  1.00  0.00    -0.275 OA
BRANCH   2   4
ATOM      4  C   UNL     1     127.985 168.006 151.643  1.00  0.00     0.097 C 
ATOM      5  C   UNL     1     128.384 166.590 152.082  1.00  0.00     0.014 C 
ENDBRANCH   2   4
ENDBRANCH   1   2
BRANCH   1   6
ATOM      6  C   UNL     1     125.608 170.093 150.246  1.00  0.00     0.155 C 
BRANCH   6   7
ATOM      7  C   UNL     1     126.780 170.901 149.973  1.00  0.00    -0.025 A 
ATOM      8  C   UNL     1     127.524 171.580 150.880  1.00  0.00     0.031 A 
ATOM      9  C   UNL     1     127.197 171.000 148.640  1.00  0.00     0.025 A 
ATOM     10  C   UNL     1     128.635 172.334 150.532  1.00  0.00     0.066 A 
ATOM     11  C   UNL     1     128.299 171.751 148.312  1.00  0.00     0.112 A 
ATOM     12  N   UNL     1     129.027 172.419 149.231  1.00  0.00    -0.259 NA
BRANCH  10  13
ATOM     13  C   UNL     1     129.455 173.081 151.527  1.00  0.00     0.212 C 
BRANCH  13  14
ATOM     14  O   UNL     1     128.668 174.099 152.114  1.00  0.00    -0.390 OA
ATOM     15  H   UNL     1     129.139 174.312 152.979  1.00  0.00     0.211 HD
ENDBRANCH  13  14
ENDBRANCH  10  13
ENDBRANCH   6   7
ENDBRANCH   1   6
BRANCH   1  16
ATOM     16  C   UNL     1     125.223 167.744 149.398  1.00  0.00     0.088 C 
ATOM     17  C   UNL     1     126.158 166.644 149.047  1.00  0.00     0.041 C 
ATOM     18  C   UNL     1     123.842 167.297 149.819  1.00  0.00     0.041 C 
ATOM     19  C   UNL     1     125.750 165.261 149.369  1.00  0.00     0.086 C 
ATOM     20  C   UNL     1     123.468 166.034 149.075  1.00  0.00     0.086 C 
ATOM     21  N   UNL     1     124.369 164.976 149.343  1.00  0.00    -0.303 NA
BRANCH  21  22
ATOM     22  C   UNL     1     123.952 163.704 148.886  1.00  0.00     0.089 C 
BRANCH  22  23
ATOM     23  C   UNL     1     124.573 162.518 149.561  1.00  0.00     0.051 C 
BRANCH  23  24
ATOM     24  C   UNL     1     124.931 161.550 148.467  1.00  0.00    -0.047 A 
ATOM     25  C   UNL     1     125.903 160.576 148.546  1.00  0.00     0.007 A 
ATOM     26  C   UNL     1     124.250 161.606 147.256  1.00  0.00     0.007 A 
ATOM     27  C   UNL     1     126.158 159.740 147.495  1.00  0.00     0.039 A 
ATOM     28  C   UNL     1     124.477 160.780 146.172  1.00  0.00     0.039 A 
ATOM     29  C   UNL     1     125.463 159.827 146.311  1.00  0.00     0.123 A 
ATOM     30  F   UNL     1     125.743 158.984 145.297  1.00  0.00    -0.207 F 
ENDBRANCH  23  24
ENDBRANCH  22  23
ENDBRANCH  21  22
ENDBRANCH   1  16
TORSDOF 10
ENDMDL
MODEL 4
REMARK VINA RESULT:    -8.051      4.288      9.889
REMARK INTER + INTRA:         -13.658
REMARK INTER:                 -12.127
REMARK INTRA:                  -1.531
REMARK UNBOUND:                -1.136
REMARK SMILES CCC(=O)N(Cc1ccnc(CO)c1)C1CCN(CCc2ccc(F)cc2)CC1
REMARK SMILES IDX 5 1 3 2 4 3 2 4 1 5 6 6 7 7 14 8 8 9 11 10 9 11 10 12 12 13
REMARK SMILES IDX 13 14 15 16 16 17 29 18 17 19 28 20 18 21 19 22 20 23 21 24
REMARK SMILES IDX 22 25 27 26 23 27 26 28 24 29 25 30
REMARK H PARENT 13 15
REMARK Flexibility Score: inf
ROOT
ATOM      1  N   UNL     1     127.263 169.307 149.927  1.00  0.00    -0.335 N 
ENDROOT
BRANCH   1   2
ATOM      2  C   UNL     1     127.713 169.887 148.714  1.00  0.00     0.222 C 
ATOM      3  O   UNL     1     128.657 169.750 147.893  1.00  0.00    -0.275 OA
BRANCH   2   4
ATOM      4  C   UNL     1     127.121 170.988 147.933  1.00  0.00     0.097 C 
ATOM      5  C   UNL     1     128.068 172.195 147.999  1.00  0.00     0.014 C 
ENDBRANCH   2   4
ENDBRANCH   1   2
BRANCH   1   6
ATOM      6  C   UNL     1     127.885 169.450 151.210  1.00  0.00     0.155 C 
BRANCH   6   7
ATOM      7  C   UNL     1     128.307 170.781 151.600  1.00  0.00    -0.025 A 
ATOM      8  C   UNL     1     127.531 171.748 152.149  1.00  0.00     0.031 A 
ATOM      9  C   UNL     1     129.651 171.117 151.393  1.00  0.00     0.025 A 
ATOM     10  C   UNL     1     128.016 173.000 152.492  1.00  0.00     0.066 A 
ATOM     11  C   UNL     1     130.115 172.362 151.739  1.00  0.00     0.112 A 
ATOM     12  N   UNL     1     129.325 173.310 152.285  1.00  0.00    -0.259 NA
BRANCH  10  13
ATOM     13  C   UNL     1     127.165 174.064 153.096  1.00  0.00     0.212 C 
BRANCH  13  14
ATOM     14  O   UNL     1     127.900 174.743 154.095  1.00  0.00    -0.390 OA
ATOM     15  H   UNL     1     128.528 175.340 153.581  1.00  0.00     0.211 HD
ENDBRANCH  13  14
ENDBRANCH  10  13
ENDBRANCH   6   7
ENDBRANCH   1   6
BRANCH   1  16
ATOM     16  C   UNL     1     126.040 168.502 149.767  1.00  0.00     0.088 C 
ATOM     17  C   UNL     1     126.212 167.402 148.782  1.00  0.00     0.041 C 
ATOM     18  C   UNL     1     125.488 168.077 151.107  1.00  0.00     0.041 C 
ATOM     19  C   UNL     1     126.071 166.014 149.267  1.00  0.00     0.086 C 
ATOM     20  C   UNL     1     124.539 166.914 150.921  1.00  0.00     0.086 C 
ATOM     21  N   UNL     1     125.183 165.795 150.341  1.00  0.00    -0.303 NA
BRANCH  21  22
ATOM     22  C   UNL     1     124.434 164.595 150.363  1.00  0.00     0.089 C 
BRANCH  22  23
ATOM     23  C   UNL     1     123.751 164.214 149.083  1.00  0.00     0.051 C 
BRANCH  23  24
ATOM     24  C   UNL     1     124.079 162.765 148.846  1.00  0.00    -0.047 A 
ATOM     25  C   UNL     1     123.190 161.716 148.943  1.00  0.00     0.007 A 
ATOM     26  C   UNL     1     125.377 162.407 148.497  1.00  0.00     0.007 A 
ATOM     27  C   UNL     1     123.583 160.427 148.709  1.00  0.00     0.039 A 
ATOM     28  C   UNL     1     125.812 161.119 148.252  1.00  0.00     0.039 A 
ATOM     29  C   UNL     1     124.877 160.113 148.366  1.00  0.00     0.123 A 
ATOM     30  F   UNL     1     125.226 158.830 148.142  1.00  0.00    -0.207 F 
ENDBRANCH  23  24
ENDBRANCH  22  23
ENDBRANCH  21  22
ENDBRANCH   1  16
TORSDOF 10
ENDMDL
MODEL 5
REMARK VINA RESULT:    -7.967      4.335      6.018
REMARK INTER + INTRA:         -13.528
REMARK INTER:                 -11.883
REMARK INTRA:                  -1.645
REMARK UNBOUND:                -1.136
REMARK SMILES CCC(=O)N(Cc1ccnc(CO)c1)C1CCN(CCc2ccc(F)cc2)CC1
REMARK SMILES IDX 5 1 3 2 4 3 2 4 1 5 6 6 7 7 14 8 8 9 11 10 9 11 10 12 12 13
REMARK SMILES IDX 13 14 15 16 16 17 29 18 17 19 28 20 18 21 19 22 20 23 21 24
REMARK SMILES IDX 22 25 27 26 23 27 26 28 24 29 25 30
REMARK H PARENT 13 15
REMARK Flexibility Score: inf
ROOT
ATOM      1  N   UNL     1     125.369 166.242 150.545  1.00  0.00    -0.335 N 
ENDROOT
BRANCH   1   2
ATOM      2  C   UNL     1     124.693 167.295 149.878  1.00  0.00     0.222 C 
ATOM      3  O   UNL     1     124.497 168.530 150.015  1.00  0.00    -0.275 OA
BRANCH   2   4
ATOM      4  C   UNL     1     123.897 167.251 148.637  1.00  0.00     0.097 C 
ATOM      5  C   UNL     1     122.515 166.669 148.967  1.00  0.00     0.014 C 
ENDBRANCH   2   4
ENDBRANCH   1   2
BRANCH   1   6
ATOM      6  C   UNL     1     126.132 165.202 149.920  1.00  0.00     0.155 C 
BRANCH   6   7
ATOM      7  C   UNL     1     125.628 163.847 150.034  1.00  0.00    -0.025 A 
ATOM      8  C   UNL     1     124.604 163.303 149.331  1.00  0.00     0.031 A 
ATOM      9  C   UNL     1     126.251 163.005 150.963  1.00  0.00     0.025 A 
ATOM     10  C   UNL     1     124.183 161.993 149.504  1.00  0.00     0.066 A 
ATOM     11  C   UNL     1     125.821 161.710 151.122  1.00  0.00     0.112 A 
ATOM     12  N   UNL     1     124.800 161.187 150.410  1.00  0.00    -0.259 NA
BRANCH  10  13
ATOM     13  C   UNL     1     123.059 161.392 148.731  1.00  0.00     0.212 C 
BRANCH  13  14
ATOM     14  O   UNL     1     122.901 160.039 149.108  1.00  0.00    -0.390 OA
ATOM     15  H   UNL     1     122.991 160.046 150.111  1.00  0.00     0.211 HD
ENDBRANCH  13  14
ENDBRANCH  10  13
ENDBRANCH   6   7
ENDBRANCH   1   6
BRANCH   1  16
ATOM     16  C   UNL     1     125.227 166.297 152.010  1.00  0.00     0.088 C 
ATOM     17  C   UNL     1     126.030 167.390 152.615  1.00  0.00     0.041 C 
ATOM     18  C   UNL     1     123.772 166.273 152.417  1.00  0.00     0.041 C 
ATOM     19  C   UNL     1     125.308 168.461 153.333  1.00  0.00     0.086 C 
ATOM     20  C   UNL     1     123.634 166.777 153.837  1.00  0.00     0.086 C 
ATOM     21  N   UNL     1     124.103 168.106 153.973  1.00  0.00    -0.303 NA
BRANCH  21  22
ATOM     22  C   UNL     1     123.782 168.730 155.201  1.00  0.00     0.089 C 
BRANCH  22  23
ATOM     23  C   UNL     1     124.939 169.123 156.070  1.00  0.00     0.051 C 
BRANCH  23  24
ATOM     24  C   UNL     1     125.344 167.883 156.819  1.00  0.00    -0.047 A 
ATOM     25  C   UNL     1     124.480 166.958 157.364  1.00  0.00     0.007 A 
ATOM     26  C   UNL     1     126.695 167.605 157.000  1.00  0.00     0.007 A 
ATOM     27  C   UNL     1     124.943 165.857 158.029  1.00  0.00     0.039 A 
ATOM     28  C   UNL     1     127.203 166.505 157.665  1.00  0.00     0.039 A 
ATOM     29  C   UNL     1     126.288 165.617 158.188  1.00  0.00     0.123 A 
ATOM     30  F   UNL     1     126.707 164.520 158.851  1.00  0.00    -0.207 F 
ENDBRANCH  23  24
ENDBRANCH  22  23
ENDBRANCH  21  22
ENDBRANCH   1  16
TORSDOF 10
ENDMDL
MODEL 6
REMARK VINA RESULT:    -7.936      3.900      9.063
REMARK INTER + INTRA:         -13.480
REMARK INTER:                 -12.074
REMARK INTRA:                  -1.405
REMARK UNBOUND:                -1.136
REMARK SMILES CCC(=O)N(Cc1ccnc(CO)c1)C1CCN(CCc2ccc(F)cc2)CC1
REMARK SMILES IDX 5 1 3 2 4 3 2 4 1 5 6 6 7 7 14 8 8 9 11 10 9 11 10 12 12 13
REMARK SMILES IDX 13 14 15 16 16 17 29 18 17 19 28 20 18 21 19 22 20 23 21 24
REMARK SMILES IDX 22 25 27 26 23 27 26 28 24 29 25 30
REMARK H PARENT 13 15
REMARK Flexibility Score: inf
ROOT
ATOM      1  N   UNL     1     127.210 167.862 151.320  1.00  0.00    -0.335 N 
ENDROOT
BRANCH   1   2
ATOM      2  C   UNL     1     126.125 168.188 152.173  1.00  0.00     0.222 C 
ATOM      3  O   UNL     1     125.447 167.653 153.088  1.00  0.00    -0.275 OA
BRANCH   2   4
ATOM      4  C   UNL     1     125.352 169.440 152.257  1.00  0.00     0.097 C 
ATOM      5  C   UNL     1     124.645 169.485 153.620  1.00  0.00     0.014 C 
ENDBRANCH   2   4
ENDBRANCH   1   2
BRANCH   1   6
ATOM      6  C   UNL     1     128.493 168.499 151.308  1.00  0.00     0.155 C 
BRANCH   6   7
ATOM      7  C   UNL     1     128.592 169.783 150.643  1.00  0.00    -0.025 A 
ATOM      8  C   UNL     1     127.938 170.165 149.518  1.00  0.00     0.031 A 
ATOM      9  C   UNL     1     129.448 170.737 151.208  1.00  0.00     0.025 A 
ATOM     10  C   UNL     1     128.092 171.418 148.944  1.00  0.00     0.066 A 
ATOM     11  C   UNL     1     129.589 171.973 150.627  1.00  0.00     0.112 A 
ATOM     12  N   UNL     1     128.927 172.333 149.507  1.00  0.00    -0.259 NA
BRANCH  10  13
ATOM     13  C   UNL     1     127.373 171.839 147.708  1.00  0.00     0.212 C 
BRANCH  13  14
ATOM     14  O   UNL     1     126.510 170.800 147.290  1.00  0.00    -0.390 OA
ATOM     15  H   UNL     1     126.986 170.378 146.510  1.00  0.00     0.211 HD
ENDBRANCH  13  14
ENDBRANCH  10  13
ENDBRANCH   6   7
ENDBRANCH   1   6
BRANCH   1  16
ATOM     16  C   UNL     1     126.908 166.756 150.394  1.00  0.00     0.088 C 
ATOM     17  C   UNL     1     127.010 165.427 151.049  1.00  0.00     0.041 C 
ATOM     18  C   UNL     1     125.615 167.005 149.653  1.00  0.00     0.041 C 
ATOM     19  C   UNL     1     125.789 164.599 151.126  1.00  0.00     0.086 C 
ATOM     20  C   UNL     1     125.103 165.704 149.075  1.00  0.00     0.086 C 
ATOM     21  N   UNL     1     124.849 164.742 150.084  1.00  0.00    -0.303 NA
BRANCH  21  22
ATOM     22  C   UNL     1     124.140 163.597 149.653  1.00  0.00     0.089 C 
BRANCH  22  23
ATOM     23  C   UNL     1     124.670 162.272 150.116  1.00  0.00     0.051 C 
BRANCH  23  24
ATOM     24  C   UNL     1     125.011 161.497 148.873  1.00  0.00    -0.047 A 
ATOM     25  C   UNL     1     126.047 160.597 148.749  1.00  0.00     0.007 A 
ATOM     26  C   UNL     1     124.241 161.671 147.728  1.00  0.00     0.007 A 
ATOM     27  C   UNL     1     126.280 159.938 147.573  1.00  0.00     0.039 A 
ATOM     28  C   UNL     1     124.443 161.025 146.523  1.00  0.00     0.039 A 
ATOM     29  C   UNL     1     125.496 160.138 146.461  1.00  0.00     0.123 A 
ATOM     30  F   UNL     1     125.756 159.469 145.319  1.00  0.00    -0.207 F 
ENDBRANCH  23  24
ENDBRANCH  22  23
ENDBRANCH  21  22
ENDBRANCH   1  16
TORSDOF 10
ENDMDL
MODEL 7
REMARK VINA RESULT:    -7.858      4.035      9.032
REMARK INTER + INTRA:         -13.358
REMARK INTER:                 -11.659
REMARK INTRA:                  -1.698
REMARK UNBOUND:                -1.136
REMARK SMILES CCC(=O)N(Cc1ccnc(CO)c1)C1CCN(CCc2ccc(F)cc2)CC1
REMARK SMILES IDX 5 1 3 2 4 3 2 4 1 5 6 6 7 7 14 8 8 9 11 10 9 11 10 12 12 13
REMARK SMILES IDX 13 14 15 16 16 17 29 18 17 19 28 20 18 21 19 22 20 23 21 24
REMARK SMILES IDX 22 25 27 26 23 27 26 28 24 29 25 30
REMARK H PARENT 13 15
REMARK Flexibility Score: inf
ROOT
ATOM      1  N   UNL     1     126.631 169.415 149.488  1.00  0.00    -0.335 N 
ENDROOT
BRANCH   1   2
ATOM      2  C   UNL     1     127.937 169.817 149.108  1.00  0.00     0.222 C 
ATOM      3  O   UNL     1     128.626 169.928 148.062  1.00  0.00    -0.275 OA
BRANCH   2   4
ATOM      4  C   UNL     1     129.045 170.299 149.954  1.00  0.00     0.097 C 
ATOM      5  C   UNL     1     129.093 171.831 149.865  1.00  0.00     0.014 C 
ENDBRANCH   2   4
ENDBRANCH   1   2
BRANCH   1   6
ATOM      6  C   UNL     1     125.684 170.209 150.214  1.00  0.00     0.155 C 
BRANCH   6   7
ATOM      7  C   UNL     1     125.709 170.116 151.661  1.00  0.00    -0.025 A 
ATOM      8  C   UNL     1     125.156 169.137 152.419  1.00  0.00     0.031 A 
ATOM      9  C   UNL     1     126.367 171.136 152.359  1.00  0.00     0.025 A 
ATOM     10  C   UNL     1     125.226 169.126 153.803  1.00  0.00     0.066 A 
ATOM     11  C   UNL     1     126.427 171.109 153.731  1.00  0.00     0.112 A 
ATOM     12  N   UNL     1     125.870 170.125 154.467  1.00  0.00    -0.259 NA
BRANCH  10  13
ATOM     13  C   UNL     1     124.619 168.051 154.639  1.00  0.00     0.212 C 
BRANCH  13  14
ATOM     14  O   UNL     1     123.476 167.537 153.985  1.00  0.00    -0.390 OA
ATOM     15  H   UNL     1     123.646 166.546 153.924  1.00  0.00     0.211 HD
ENDBRANCH  13  14
ENDBRANCH  10  13
ENDBRANCH   6   7
ENDBRANCH   1   6
BRANCH   1  16
ATOM     16  C   UNL     1     126.296 168.047 149.057  1.00  0.00     0.088 C 
ATOM     17  C   UNL     1     126.920 167.014 149.923  1.00  0.00     0.041 C 
ATOM     18  C   UNL     1     124.809 167.891 148.846  1.00  0.00     0.041 C 
ATOM     19  C   UNL     1     126.024 166.110 150.674  1.00  0.00     0.086 C 
ATOM     20  C   UNL     1     124.446 166.422 148.855  1.00  0.00     0.086 C 
ATOM     21  N   UNL     1     124.780 165.803 150.084  1.00  0.00    -0.303 NA
BRANCH  21  22
ATOM     22  C   UNL     1     124.251 164.504 150.262  1.00  0.00     0.089 C 
BRANCH  22  23
ATOM     23  C   UNL     1     123.476 163.937 149.110  1.00  0.00     0.051 C 
BRANCH  23  24
ATOM     24  C   UNL     1     124.068 162.584 148.829  1.00  0.00    -0.047 A 
ATOM     25  C   UNL     1     125.342 162.348 148.359  1.00  0.00     0.007 A 
ATOM     26  C   UNL     1     123.300 161.444 149.046  1.00  0.00     0.007 A 
ATOM     27  C   UNL     1     125.793 161.078 148.132  1.00  0.00     0.039 A 
ATOM     28  C   UNL     1     123.719 160.145 148.830  1.00  0.00     0.039 A 
ATOM     29  C   UNL     1     125.003 159.975 148.360  1.00  0.00     0.123 A 
ATOM     30  F   UNL     1     125.484 158.737 148.124  1.00  0.00    -0.207 F 
ENDBRANCH  23  24
ENDBRANCH  22  23
ENDBRANCH  21  22
ENDBRANCH   1  16
TORSDOF 10
ENDMDL
MODEL 8
REMARK VINA RESULT:    -7.716      4.556      9.776
REMARK INTER + INTRA:         -13.136
REMARK INTER:                 -11.663
REMARK INTRA:                  -1.473
REMARK UNBOUND:                -1.136
REMARK SMILES CCC(=O)N(Cc1ccnc(CO)c1)C1CCN(CCc2ccc(F)cc2)CC1
REMARK SMILES IDX 5 1 3 2 4 3 2 4 1 5 6 6 7 7 14 8 8 9 11 10 9 11 10 12 12 13
REMARK SMILES IDX 13 14 15 16 16 17 29 18 17 19 28 20 18 21 19 22 20 23 21 24
REMARK SMILES IDX 22 25 27 26 23 27 26 28 24 29 25 30
REMARK H PARENT 13 15
REMARK Flexibility Score: inf
ROOT
ATOM      1  N   UNL     1     126.966 170.451 150.345  1.00  0.00    -0.335 N 
ENDROOT
BRANCH   1   2
ATOM      2  C   UNL     1     128.058 171.055 149.672  1.00  0.00     0.222 C 
ATOM      3  O   UNL     1     129.240 171.410 149.916  1.00  0.00    -0.275 OA
BRANCH   2   4
ATOM      4  C   UNL     1     128.150 171.517 148.275  1.00  0.00     0.097 C 
ATOM      5  C   UNL     1     126.754 171.431 147.641  1.00  0.00     0.014 C 
ENDBRANCH   2   4
ENDBRANCH   1   2
BRANCH   1   6
ATOM      6  C   UNL     1     126.046 171.114 151.221  1.00  0.00     0.155 C 
BRANCH   6   7
ATOM      7  C   UNL     1     126.516 171.446 152.552  1.00  0.00    -0.025 A 
ATOM      8  C   UNL     1     127.263 172.522 152.901  1.00  0.00     0.031 A 
ATOM      9  C   UNL     1     126.173 170.574 153.592  1.00  0.00     0.025 A 
ATOM     10  C   UNL     1     127.674 172.765 154.203  1.00  0.00     0.066 A 
ATOM     11  C   UNL     1     126.587 170.829 154.877  1.00  0.00     0.112 A 
ATOM     12  N   UNL     1     127.330 171.907 155.203  1.00  0.00    -0.259 NA
BRANCH  10  13
ATOM     13  C   UNL     1     128.495 173.948 154.589  1.00  0.00     0.212 C 
BRANCH  13  14
ATOM     14  O   UNL     1     129.076 173.722 155.858  1.00  0.00    -0.390 OA
ATOM     15  H   UNL     1     128.394 174.072 156.511  1.00  0.00     0.211 HD
ENDBRANCH  13  14
ENDBRANCH  10  13
ENDBRANCH   6   7
ENDBRANCH   1   6
BRANCH   1  16
ATOM     16  C   UNL     1     126.834 169.011 150.062  1.00  0.00     0.088 C 
ATOM     17  C   UNL     1     127.583 168.174 151.035  1.00  0.00     0.041 C 
ATOM     18  C   UNL     1     125.387 168.624 149.868  1.00  0.00     0.041 C 
ATOM     19  C   UNL     1     126.812 167.237 151.876  1.00  0.00     0.086 C 
ATOM     20  C   UNL     1     125.235 167.128 150.034  1.00  0.00     0.086 C 
ATOM     21  N   UNL     1     125.633 166.696 151.322  1.00  0.00    -0.303 NA
BRANCH  21  22
ATOM     22  C   UNL     1     125.291 165.361 151.637  1.00  0.00     0.089 C 
BRANCH  22  23
ATOM     23  C   UNL     1     126.120 164.291 150.992  1.00  0.00     0.051 C 
BRANCH  23  24
ATOM     24  C   UNL     1     125.152 163.346 150.334  1.00  0.00    -0.047 A 
ATOM     25  C   UNL     1     124.241 163.685 149.357  1.00  0.00     0.007 A 
ATOM     26  C   UNL     1     125.141 162.008 150.711  1.00  0.00     0.007 A 
ATOM     27  C   UNL     1     123.398 162.754 148.817  1.00  0.00     0.039 A 
ATOM     28  C   UNL     1     124.307 161.037 150.190  1.00  0.00     0.039 A 
ATOM     29  C   UNL     1     123.417 161.438 149.217  1.00  0.00     0.123 A 
ATOM     30  F   UNL     1     122.570 160.548 148.660  1.00  0.00    -0.207 F 
ENDBRANCH  23  24
ENDBRANCH  22  23
ENDBRANCH  21  22
ENDBRANCH   1  16
TORSDOF 10
ENDMDL
MODEL 9
REMARK VINA RESULT:    -7.671      3.934      8.871
REMARK INTER + INTRA:         -13.066
REMARK INTER:                 -11.514
REMARK INTRA:                  -1.552
REMARK UNBOUND:                -1.136
REMARK SMILES CCC(=O)N(Cc1ccnc(CO)c1)C1CCN(CCc2ccc(F)cc2)CC1
REMARK SMILES IDX 5 1 3 2 4 3 2 4 1 5 6 6 7 7 14 8 8 9 11 10 9 11 10 12 12 13
REMARK SMILES IDX 13 14 15 16 16 17 29 18 17 19 28 20 18 21 19 22 20 23 21 24
REMARK SMILES IDX 22 25 27 26 23 27 26 28 24 29 25 30
REMARK H PARENT 13 15
REMARK Flexibility Score: inf
ROOT
ATOM      1  N   UNL     1     125.875 167.884 150.538  1.00  0.00    -0.335 N 
ENDROOT
BRANCH   1   2
ATOM      2  C   UNL     1     125.913 169.208 150.032  1.00  0.00     0.222 C 
ATOM      3  O   UNL     1     126.360 169.826 149.031  1.00  0.00    -0.275 OA
BRANCH   2   4
ATOM      4  C   UNL     1     125.356 170.443 150.613  1.00  0.00     0.097 C 
ATOM      5  C   UNL     1     126.509 171.262 151.211  1.00  0.00     0.014 C 
ENDBRANCH   2   4
ENDBRANCH   1   2
BRANCH   1   6
ATOM      6  C   UNL     1     126.188 167.486 151.878  1.00  0.00     0.155 C 
BRANCH   6   7
ATOM      7  C   UNL     1     125.172 167.701 152.890  1.00  0.00    -0.025 A 
ATOM      8  C   UNL     1     125.115 168.729 153.773  1.00  0.00     0.031 A 
ATOM      9  C   UNL     1     124.139 166.759 152.977  1.00  0.00     0.025 A 
ATOM     10  C   UNL     1     124.104 168.859 154.714  1.00  0.00     0.066 A 
ATOM     11  C   UNL     1     123.146 166.904 153.914  1.00  0.00     0.112 A 
ATOM     12  N   UNL     1     123.107 167.935 154.784  1.00  0.00    -0.259 NA
BRANCH  10  13
ATOM     13  C   UNL     1     124.039 169.988 155.685  1.00  0.00     0.212 C 
BRANCH  13  14
ATOM     14  O   UNL     1     122.776 169.989 156.320  1.00  0.00    -0.390 OA
ATOM     15  H   UNL     1     122.893 169.378 157.112  1.00  0.00     0.211 HD
ENDBRANCH  13  14
ENDBRANCH  10  13
ENDBRANCH   6   7
ENDBRANCH   1   6
BRANCH   1  16
ATOM     16  C   UNL     1     125.466 166.889 149.531  1.00  0.00     0.088 C 
ATOM     17  C   UNL     1     126.156 165.586 149.712  1.00  0.00     0.041 C 
ATOM     18  C   UNL     1     123.961 166.806 149.428  1.00  0.00     0.041 C 
ATOM     19  C   UNL     1     125.326 164.402 150.015  1.00  0.00     0.086 C 
ATOM     20  C   UNL     1     123.569 165.508 148.757  1.00  0.00     0.086 C 
ATOM     21  N   UNL     1     124.020 164.380 149.485  1.00  0.00    -0.303 NA
BRANCH  21  22
ATOM     22  C   UNL     1     123.486 163.141 149.060  1.00  0.00     0.089 C 
BRANCH  22  23
ATOM     23  C   UNL     1     124.228 161.912 149.492  1.00  0.00     0.051 C 
BRANCH  23  24
ATOM     24  C   UNL     1     124.795 161.300 148.241  1.00  0.00    -0.047 A 
ATOM     25  C   UNL     1     126.026 160.688 148.135  1.00  0.00     0.007 A 
ATOM     26  C   UNL     1     124.049 161.330 147.068  1.00  0.00     0.007 A 
ATOM     27  C   UNL     1     126.457 160.159 146.950  1.00  0.00     0.039 A 
ATOM     28  C   UNL     1     124.448 160.807 145.852  1.00  0.00     0.039 A 
ATOM     29  C   UNL     1     125.689 160.209 145.809  1.00  0.00     0.123 A 
ATOM     30  F   UNL     1     126.149 159.675 144.659  1.00  0.00    -0.207 F 
ENDBRANCH  23  24
ENDBRANCH  22  23
ENDBRANCH  21  22
ENDBRANCH   1  16
TORSDOF 10
ENDMDL
MODEL 10
REMARK VINA RESULT:    -7.633      2.449      3.136
REMARK INTER + INTRA:         -13.008
REMARK INTER:                 -11.735
REMARK INTRA:                  -1.273
REMARK UNBOUND:                -1.136
REMARK SMILES CCC(=O)N(Cc1ccnc(CO)c1)C1CCN(CCc2ccc(F)cc2)CC1
REMARK SMILES IDX 5 1 3 2 4 3 2 4 1 5 6 6 7 7 14 8 8 9 11 10 9 11 10 12 12 13
REMARK SMILES IDX 13 14 15 16 16 17 29 18 17 19 28 20 18 21 19 22 20 23 21 24
REMARK SMILES IDX 22 25 27 26 23 27 26 28 24 29 25 30
REMARK H PARENT 13 15
REMARK Flexibility Score: inf
ROOT
ATOM      1  N   UNL     1     125.425 164.455 150.422  1.00  0.00    -0.335 N 
ENDROOT
BRANCH   1   2
ATOM      2  C   UNL     1     124.096 164.949 150.404  1.00  0.00     0.222 C 
ATOM      3  O   UNL     1     123.309 165.574 151.162  1.00  0.00    -0.275 OA
BRANCH   2   4
ATOM      4  C   UNL     1     123.087 164.867 149.333  1.00  0.00     0.097 C 
ATOM      5  C   UNL     1     122.397 166.233 149.208  1.00  0.00     0.014 C 
ENDBRANCH   2   4
ENDBRANCH   1   2
BRANCH   1   6
ATOM      6  C   UNL     1     125.816 163.100 150.675  1.00  0.00     0.155 C 
BRANCH   6   7
ATOM      7  C   UNL     1     125.325 162.084 149.765  1.00  0.00    -0.025 A 
ATOM      8  C   UNL     1     125.771 161.840 148.508  1.00  0.00     0.031 A 
ATOM      9  C   UNL     1     124.281 161.266 150.216  1.00  0.00     0.025 A 
ATOM     10  C   UNL     1     125.241 160.845 147.700  1.00  0.00     0.066 A 
ATOM     11  C   UNL     1     123.769 160.285 149.403  1.00  0.00     0.112 A 
ATOM     12  N   UNL     1     124.228 160.058 148.154  1.00  0.00    -0.259 NA
BRANCH  10  13
ATOM     13  C   UNL     1     125.731 160.574 146.318  1.00  0.00     0.212 C 
BRANCH  13  14
ATOM     14  O   UNL     1     125.388 159.253 145.950  1.00  0.00    -0.390 OA
ATOM     15  H   UNL     1     124.723 159.367 145.201  1.00  0.00     0.211 HD
ENDBRANCH  13  14
ENDBRANCH  10  13
ENDBRANCH   6   7
ENDBRANCH   1   6
BRANCH   1  16
ATOM     16  C   UNL     1     126.433 165.492 150.143  1.00  0.00     0.088 C 
ATOM     17  C   UNL     1     126.081 166.319 148.960  1.00  0.00     0.041 C 
ATOM     18  C   UNL     1     126.769 166.275 151.391  1.00  0.00     0.041 C 
ATOM     19  C   UNL     1     125.856 167.764 149.170  1.00  0.00     0.086 C 
ATOM     20  C   UNL     1     127.430 167.581 151.009  1.00  0.00     0.086 C 
ATOM     21  N   UNL     1     126.585 168.385 150.205  1.00  0.00    -0.303 NA
BRANCH  21  22
ATOM     22  C   UNL     1     127.028 169.714 150.015  1.00  0.00     0.089 C 
BRANCH  22  23
ATOM     23  C   UNL     1     126.056 170.797 150.377  1.00  0.00     0.051 C 
BRANCH  23  24
ATOM     24  C   UNL     1     125.898 170.739 151.872  1.00  0.00    -0.047 A 
ATOM     25  C   UNL     1     125.005 169.940 152.553  1.00  0.00     0.007 A 
ATOM     26  C   UNL     1     126.701 171.541 152.675  1.00  0.00     0.007 A 
ATOM     27  C   UNL     1     124.934 169.956 153.918  1.00  0.00     0.039 A 
ATOM     28  C   UNL     1     126.661 171.586 154.056  1.00  0.00     0.039 A 
ATOM     29  C   UNL     1     125.746 170.765 154.679  1.00  0.00     0.123 A 
ATOM     30  F   UNL     1     125.646 170.752 156.024  1.00  0.00    -0.207 F 
ENDBRANCH  23  24
ENDBRANCH  22  23
ENDBRANCH  21  22
ENDBRANCH   1  16
TORSDOF 10
ENDMDL
