
     RDKit          3D

 60 62  0  0  0  0  0  0  0  0999 V2000
   -3.6069   -2.8251   -2.7824 C   0  0  0  0  0  0  0  0  0  0  0  0
   -2.2966   -2.4852   -2.1136 C   0  0  0  0  0  0  0  0  0  0  0  0
   -2.2968   -1.0492   -1.7840 C   0  0  0  0  0  0  0  0  0  0  0  0
   -1.4733   -0.0695   -1.1738 N   0  0  0  0  0  0  0  0  0  0  0  0
   -2.0173    1.2613   -1.1206 C   0  0  0  0  0  0  0  0  0  0  0  0
   -2.8364    1.5763    0.0435 C   0  0  0  0  0  0  0  0  0  0  0  0
   -4.2178    1.3593    0.0499 C   0  0  0  0  0  0  0  0  0  0  0  0
   -5.1263    1.6128    1.0721 C   0  0  0  0  0  0  0  0  0  0  0  0
   -6.5584    1.3242    0.9097 C   0  0  0  0  0  0  0  0  0  0  0  0
   -6.9381    0.0494    1.2936 O   0  0  0  0  0  0  0  0  0  0  0  0
   -4.5682    2.1535    2.2324 C   0  0  0  0  0  0  0  0  0  0  0  0
   -3.2243    2.4053    2.3311 C   0  0  0  0  0  0  0  0  0  0  0  0
   -2.4149    2.1155    1.2565 C   0  0  0  0  0  0  0  0  0  0  0  0
   -0.3108   -0.8584   -0.8343 C   0  0  0  0  0  0  0  0  0  0  0  0
   -0.1148   -0.8348    0.6403 C   0  0  0  0  0  0  0  0  0  0  0  0
    1.2610   -1.2863    1.0633 C   0  0  0  0  0  0  0  0  0  0  0  0
    2.3421   -0.6580    0.3544 N   0  0  0  0  0  0  0  0  0  0  0  0
    2.6823    0.6361    0.8551 C   0  0  0  0  0  0  0  0  0  0  0  0
    3.8618    1.3088    0.2475 C   0  0  0  0  0  0  0  0  0  0  0  0
    5.1433    0.5798    0.4197 C   0  0  0  0  0  0  0  0  0  0  0  0
    5.8641    0.8672    1.5895 C   0  0  0  0  0  0  0  0  0  0  0  0
    7.0715    0.3063    1.9422 C   0  0  0  0  0  0  0  0  0  0  0  0
    7.6361   -0.6172    1.0888 C   0  0  0  0  0  0  0  0  0  0  0  0
    6.9536   -0.9203   -0.0674 C   0  0  0  0  0  0  0  0  0  0  0  0
    5.7622   -0.3483   -0.3875 C   0  0  0  0  0  0  0  0  0  0  0  0
    2.2067   -0.7264   -1.0704 C   0  0  0  0  0  0  0  0  0  0  0  0
    0.8613   -0.2985   -1.6003 C   0  0  0  0  0  0  0  0  0  0  0  0
   -3.4341   -1.0077   -2.3067 O   0  0  0  0  0  0  0  0  0  0  0  0
   -4.4163   -2.6255   -2.0691 H   0  0  0  0  0  0  0  0  0  0  0  0
   -3.7714   -2.2687   -3.7052 H   0  0  0  0  0  0  0  0  0  0  0  0
   -3.5901   -3.9081   -3.0482 H   0  0  0  0  0  0  0  0  0  0  0  0
   -1.4475   -2.7520   -2.7919 H   0  0  0  0  0  0  0  0  0  0  0  0
   -2.1789   -3.0992   -1.1873 H   0  0  0  0  0  0  0  0  0  0  0  0
   -1.1870    2.0098   -1.1508 H   0  0  0  0  0  0  0  0  0  0  0  0
   -2.6571    1.4069   -2.0385 H   0  0  0  0  0  0  0  0  0  0  0  0
   -4.6683    0.9405   -0.8514 H   0  0  0  0  0  0  0  0  0  0  0  0
   -6.8824    1.5271   -0.1524 H   0  0  0  0  0  0  0  0  0  0  0  0
   -7.1423    2.0352    1.5626 H   0  0  0  0  0  0  0  0  0  0  0  0
   -7.4983   -0.4108    0.6306 H   0  0  0  0  0  0  0  0  0  0  0  0
   -5.2274    2.3638    3.0387 H   0  0  0  0  0  0  0  0  0  0  0  0
   -2.7675    2.8276    3.2279 H   0  0  0  0  0  0  0  0  0  0  0  0
   -1.3509    2.3161    1.3381 H   0  0  0  0  0  0  0  0  0  0  0  0
   -0.5429   -1.9000   -1.1919 H   0  0  0  0  0  0  0  0  0  0  0  0
   -0.3792    0.1353    1.1045 H   0  0  0  0  0  0  0  0  0  0  0  0
   -0.8316   -1.5687    1.0919 H   0  0  0  0  0  0  0  0  0  0  0  0
    1.3504   -2.3799    0.9288 H   0  0  0  0  0  0  0  0  0  0  0  0
    1.3688   -1.0673    2.1431 H   0  0  0  0  0  0  0  0  0  0  0  0
    1.8361    1.3526    0.8057 H   0  0  0  0  0  0  0  0  0  0  0  0
    2.9117    0.5073    1.9373 H   0  0  0  0  0  0  0  0  0  0  0  0
    3.9553    2.2973    0.7801 H   0  0  0  0  0  0  0  0  0  0  0  0
    3.7520    1.6019   -0.8167 H   0  0  0  0  0  0  0  0  0  0  0  0
    5.4668    1.5873    2.2987 H   0  0  0  0  0  0  0  0  0  0  0  0
    7.5649    0.5809    2.8635 H   0  0  0  0  0  0  0  0  0  0  0  0
    8.5753   -1.0465    1.3752 H   0  0  0  0  0  0  0  0  0  0  0  0
    7.3726   -1.6451   -0.7624 H   0  0  0  0  0  0  0  0  0  0  0  0
    5.2293   -0.5832   -1.2920 H   0  0  0  0  0  0  0  0  0  0  0  0
    2.9434   -0.0992   -1.5628 H   0  0  0  0  0  0  0  0  0  0  0  0
    2.3629   -1.7799   -1.3754 H   0  0  0  0  0  0  0  0  0  0  0  0
    0.7740   -0.7115   -2.6397 H   0  0  0  0  0  0  0  0  0  0  0  0
    0.8645    0.7848   -1.6937 H   0  0  0  0  0  0  0  0  0  0  0  0
  1  2  1  0
  2  3  1  0
  3  4  1  0
  4  5  1  0
  5  6  1  0
  6  7  2  0
  7  8  1  0
  8  9  1  0
  9 10  1  0
  8 11  2  0
 11 12  1  0
 12 13  2  0
  4 14  1  0
 14 15  1  0
 15 16  1  0
 16 17  1  0
 17 18  1  0
 18 19  1  0
 19 20  1  0
 20 21  2  0
 21 22  1  0
 22 23  2  0
 23 24  1  0
 24 25  2  0
 17 26  1  0
 26 27  1  0
  3 28  2  0
 13  6  1  0
 27 14  1  0
 25 20  1  0
  1 29  1  0
  1 30  1  0
  1 31  1  0
  2 32  1  0
  2 33  1  0
  5 34  1  0
  5 35  1  0
  7 36  1  0
  9 37  1  0
  9 38  1  0
 10 39  1  0
 11 40  1  0
 12 41  1  0
 13 42  1  0
 14 43  1  0
 15 44  1  0
 15 45  1  0
 16 46  1  0
 16 47  1  0
 18 48  1  0
 18 49  1  0
 19 50  1  0
 19 51  1  0
 21 52  1  0
 22 53  1  0
 23 54  1  0
 24 55  1  0
 25 56  1  0
 26 57  1  0
 26 58  1  0
 27 59  1  0
 27 60  1  0
M  END
