
     RDKit          3D

 59 61  0  0  0  0  0  0  0  0999 V2000
   -2.4230    2.1840   -3.5536 C   0  0  0  0  0  0  0  0  0  0  0  0
   -3.0121    1.9943   -2.1494 C   0  0  0  0  0  0  0  0  0  0  0  0
   -1.9285    1.5705   -1.2424 C   0  0  0  0  0  0  0  0  0  0  0  0
   -1.9849    1.2829    0.1449 N   0  0  0  0  0  0  0  0  0  0  0  0
   -3.1528    1.3524    0.9730 C   0  0  0  0  0  0  0  0  0  0  0  0
   -3.9511    0.1482    1.0992 C   0  0  0  0  0  0  0  0  0  0  0  0
   -4.9877   -0.2215    0.3078 C   0  0  0  0  0  0  0  0  0  0  0  0
   -5.7015   -1.3949    0.4996 C   0  0  0  0  0  0  0  0  0  0  0  0
   -6.8424   -1.8043   -0.3695 C   0  0  0  0  0  0  0  0  0  0  0  0
   -6.3561   -2.5788   -1.4471 O   0  0  0  0  0  0  0  0  0  0  0  0
   -5.3762   -2.2385    1.5174 N   0  0  0  0  0  0  0  0  0  0  0  0
   -4.3473   -1.8891    2.3168 C   0  0  0  0  0  0  0  0  0  0  0  0
   -3.6301   -0.7309    2.1406 C   0  0  0  0  0  0  0  0  0  0  0  0
   -0.6841    0.8833    0.7083 C   0  0  0  0  0  0  0  0  0  0  0  0
   -0.1760   -0.3809    0.1141 C   0  0  0  0  0  0  0  0  0  0  0  0
    1.0957   -0.3288   -0.6348 C   0  0  0  0  0  0  0  0  0  0  0  0
    2.0477    0.6250   -0.2201 N   0  0  0  0  0  0  0  0  0  0  0  0
    3.4190    0.2859   -0.2933 C   0  0  0  0  0  0  0  0  0  0  0  0
    3.8920   -0.7797    0.6502 C   0  0  0  0  0  0  0  0  0  0  0  0
    5.3613   -0.9583    0.3819 C   0  0  0  0  0  0  0  0  0  0  0  0
    6.3792   -0.2706    1.0079 C   0  0  0  0  0  0  0  0  0  0  0  0
    7.6898   -0.5021    0.6959 C   0  0  0  0  0  0  0  0  0  0  0  0
    5.7735   -1.8838   -0.5697 C   0  0  0  0  0  0  0  0  0  0  0  0
    7.0873   -2.1465   -0.9130 C   0  0  0  0  0  0  0  0  0  0  0  0
    8.0592   -1.4275   -0.2530 C   0  0  0  0  0  0  0  0  0  0  0  0
    9.3633   -1.6269   -0.5327 F   0  0  0  0  0  0  0  0  0  0  0  0
    1.7039    1.5052    0.8346 C   0  0  0  0  0  0  0  0  0  0  0  0
    0.2938    2.0338    0.6907 C   0  0  0  0  0  0  0  0  0  0  0  0
   -1.0799    1.5925   -2.1704 O   0  0  0  0  0  0  0  0  0  0  0  0
   -1.5863    2.8873   -3.5365 H   0  0  0  0  0  0  0  0  0  0  0  0
   -2.0643    1.1684   -3.8719 H   0  0  0  0  0  0  0  0  0  0  0  0
   -3.1779    2.5893   -4.2411 H   0  0  0  0  0  0  0  0  0  0  0  0
   -3.8348    1.2559   -2.2154 H   0  0  0  0  0  0  0  0  0  0  0  0
   -3.4576    2.9725   -1.8769 H   0  0  0  0  0  0  0  0  0  0  0  0
   -2.8399    1.6852    1.9874 H   0  0  0  0  0  0  0  0  0  0  0  0
   -3.7887    2.2002    0.5989 H   0  0  0  0  0  0  0  0  0  0  0  0
   -5.2738    0.4064   -0.4955 H   0  0  0  0  0  0  0  0  0  0  0  0
   -7.5804   -2.3985    0.2066 H   0  0  0  0  0  0  0  0  0  0  0  0
   -7.3163   -0.8705   -0.7333 H   0  0  0  0  0  0  0  0  0  0  0  0
   -5.6469   -3.1641   -1.0352 H   0  0  0  0  0  0  0  0  0  0  0  0
   -4.1006   -2.5748    3.1251 H   0  0  0  0  0  0  0  0  0  0  0  0
   -2.8104   -0.5243    2.8345 H   0  0  0  0  0  0  0  0  0  0  0  0
   -0.8377    0.6792    1.8105 H   0  0  0  0  0  0  0  0  0  0  0  0
   -0.1234   -1.2252    0.8582 H   0  0  0  0  0  0  0  0  0  0  0  0
   -0.9592   -0.7492   -0.6135 H   0  0  0  0  0  0  0  0  0  0  0  0
    1.5765   -1.3420   -0.5822 H   0  0  0  0  0  0  0  0  0  0  0  0
    0.9607   -0.1933   -1.7504 H   0  0  0  0  0  0  0  0  0  0  0  0
    4.0460    1.1698   -0.1444 H   0  0  0  0  0  0  0  0  0  0  0  0
    3.6450   -0.0867   -1.3354 H   0  0  0  0  0  0  0  0  0  0  0  0
    3.4221   -1.7662    0.4093 H   0  0  0  0  0  0  0  0  0  0  0  0
    3.7879   -0.5319    1.7072 H   0  0  0  0  0  0  0  0  0  0  0  0
    6.0658    0.4632    1.7618 H   0  0  0  0  0  0  0  0  0  0  0  0
    8.4085    0.0967    1.2510 H   0  0  0  0  0  0  0  0  0  0  0  0
    5.0020   -2.4430   -1.0819 H   0  0  0  0  0  0  0  0  0  0  0  0
    7.3285   -2.8815   -1.6630 H   0  0  0  0  0  0  0  0  0  0  0  0
    1.9105    1.0978    1.8245 H   0  0  0  0  0  0  0  0  0  0  0  0
    2.3648    2.4141    0.7323 H   0  0  0  0  0  0  0  0  0  0  0  0
    0.1247    2.7277    1.5423 H   0  0  0  0  0  0  0  0  0  0  0  0
    0.2229    2.6429   -0.2233 H   0  0  0  0  0  0  0  0  0  0  0  0
  1  2  1  0
  2  3  1  0
  3  4  1  0
  4  5  1  0
  5  6  1  0
  6  7  2  0
  7  8  1  0
  8  9  1  0
  9 10  1  0
  8 11  2  0
 11 12  1  0
 12 13  2  0
  4 14  1  0
 14 15  1  0
 15 16  1  0
 16 17  1  0
 17 18  1  0
 18 19  1  0
 19 20  1  0
 20 21  2  0
 21 22  1  0
 20 23  1  0
 23 24  2  0
 24 25  1  0
 25 26  1  0
 17 27  1  0
 27 28  1  0
  3 29  2  0
 13  6  1  0
 28 14  1  0
 25 22  2  0
  1 30  1  0
  1 31  1  0
  1 32  1  0
  2 33  1  0
  2 34  1  0
  5 35  1  0
  5 36  1  0
  7 37  1  0
  9 38  1  0
  9 39  1  0
 10 40  1  0
 12 41  1  0
 13 42  1  0
 14 43  1  0
 15 44  1  0
 15 45  1  0
 16 46  1  0
 16 47  1  0
 18 48  1  0
 18 49  1  0
 19 50  1  0
 19 51  1  0
 21 52  1  0
 22 53  1  0
 23 54  1  0
 24 55  1  0
 27 56  1  0
 27 57  1  0
 28 58  1  0
 28 59  1  0
M  END
