
  ACD/LABS04242517523D

 29 31  0  0  0  0  0  0  0  0  1 V2000
   13.4082   -8.7693   -1.0648 C   0  0  0  0  0  0  0  0  0  0  0  0
   12.7945  -10.0599   -0.5134 C   0  0  0  0  0  0  0  0  0  0  0  0
   12.5094   -7.5840   -0.6572 C   0  0  0  0  0  0  0  0  0  0  0  0
   11.4393  -10.2198   -1.0632 N   0  0  0  0  0  0  0  0  0  0  0  0
   11.0766   -7.8030   -1.1624 C   0  0  0  0  0  0  0  0  0  0  0  0
   10.5492   -9.1325   -0.6240 C   0  0  0  0  0  0  0  0  0  0  0  0
   10.8831  -11.5077   -0.6346 C   0  0  0  0  0  0  0  0  0  0  0  0
   10.0709  -12.0890   -1.7897 C   0  0  0  0  0  0  0  0  0  0  0  0
    9.3879  -13.3643   -1.3567 C   0  0  0  0  0  0  0  0  0  0  0  0
    8.0218  -13.3650   -1.1299 C   0  0  0  0  0  0  0  0  0  0  0  0
    7.3821  -14.5282   -0.7338 C   0  0  0  0  0  0  0  0  0  0  0  0
    8.1105  -15.6938   -0.5614 C   0  0  0  0  0  0  0  0  0  0  0  0
   10.1161  -14.5317   -1.1861 C   0  0  0  0  0  0  0  0  0  0  0  0
    9.4773  -15.6962   -0.7893 C   0  0  0  0  0  0  0  0  0  0  0  0
   12.9895   -6.2653   -1.1172 N   0  0  0  0  0  0  0  0  0  0  0  0
   12.3060   -5.1166   -0.7559 C   0  0  0  0  0  0  0  0  0  0  0  0
   12.6862   -3.7688   -1.3199 C   0  0  0  0  0  0  0  0  0  0  0  0
   11.6779   -2.7162   -0.8480 C   0  0  0  0  0  0  0  0  0  0  0  0
   14.0870   -6.2902   -2.1040 C   0  0  0  0  0  0  0  0  0  0  0  0
   11.3652   -5.1987    0.0000 O   0  0  0  0  0  0  0  0  0  0  0  0
   15.3412   -5.6911   -1.5076 C   0  0  0  0  0  0  0  0  0  0  0  0
   16.7482   -3.7903   -1.1129 C   0  0  0  0  0  0  0  0  0  0  0  0
   17.6328   -4.5911   -0.4090 N   0  0  0  0  0  0  0  0  0  0  0  0
   15.6033   -4.3406   -1.6624 C   0  0  0  0  0  0  0  0  0  0  0  0
   17.3722   -5.9424   -0.2549 C   0  0  0  0  0  0  0  0  0  0  0  0
   16.2252   -6.4920   -0.8044 C   0  0  0  0  0  0  0  0  0  0  0  0
   17.0287   -2.3184   -1.2826 C   0  0  0  0  0  0  0  0  0  0  0  0
   16.2367   -1.5825   -0.3628 O   0  0  0  0  0  0  0  0  0  0  0  0
    7.7236  -16.3606   -0.5614 F   0  0  0  0  0  0  0  0  0  0  0  0
  1  2  1  0  0  0  0
  1  3  1  0  0  0  0
  2  4  1  0  0  0  0
  3  5  1  0  0  0  0
  4  6  1  0  0  0  0
  5  6  1  0  0  0  0
  4  7  1  0  0  0  0
  7  8  1  0  0  0  0
  8  9  1  0  0  0  0
 10 11  1  0  0  0  0
 10  9  2  0  0  0  0
 11 12  2  0  0  0  0
  9 13  1  0  0  0  0
 12 14  1  0  0  0  0
 13 14  2  0  0  0  0
  3 15  1  0  0  0  0
 15 16  1  0  0  0  0
 16 17  1  0  0  0  0
 17 18  1  0  0  0  0
 15 19  1  0  0  0  0
 16 20  2  0  0  0  0
 19 21  1  0  0  0  0
 22 23  1  0  0  0  0
 22 24  2  0  0  0  0
 23 25  2  0  0  0  0
 24 21  1  0  0  0  0
 25 26  1  0  0  0  0
 21 26  2  0  0  0  0
 22 27  1  0  0  0  0
 27 28  1  0  0  0  0
 12 29  1  0  0  0  0
M  END
>  <Formula>
C23 H30 F N3 O2 

>  <FW>
399.5104

$$$$
