REMARK SMILES CCC(=O)N(Cc1cccc(CO)c1)C1CCN(CCc2ccccc2)CC1
REMARK SMILES IDX 5 1 3 2 4 3 2 4 1 5 6 6 7 7 14 8 8 9 11 10 9 11 10 12 12 13
REMARK SMILES IDX 13 14 15 16 16 17 28 18 17 19 27 20 18 21 19 22 20 23 21 24
REMARK SMILES IDX 22 25 26 26 23 27 25 28 24 29
REMARK H PARENT 13 15
REMARK Flexibility Score: inf
ROOT
ATOM      1  N   UNL     1      -1.473  -0.070  -1.174  1.00  0.00    -0.335 N 
ENDROOT
BRANCH   1   2
ATOM      2  C   UNL     1      -2.297  -1.049  -1.784  1.00  0.00     0.222 C 
ATOM      3  O   UNL     1      -3.434  -1.008  -2.307  1.00  0.00    -0.275 OA
BRANCH   2   4
ATOM      4  C   UNL     1      -2.297  -2.485  -2.114  1.00  0.00     0.097 C 
ATOM      5  C   UNL     1      -3.607  -2.825  -2.782  1.00  0.00     0.014 C 
ENDBRANCH   2   4
ENDBRANCH   1   2
BRANCH   1   6
ATOM      6  C   UNL     1      -2.017   1.261  -1.121  1.00  0.00     0.155 C 
BRANCH   6   7
ATOM      7  C   UNL     1      -2.836   1.576   0.043  1.00  0.00    -0.028 A 
ATOM      8  C   UNL     1      -4.218   1.359   0.050  1.00  0.00     0.011 A 
ATOM      9  C   UNL     1      -2.415   2.115   1.256  1.00  0.00     0.005 A 
ATOM     10  C   UNL     1      -5.126   1.613   1.072  1.00  0.00    -0.022 A 
ATOM     11  C   UNL     1      -3.224   2.405   2.331  1.00  0.00     0.001 A 
ATOM     12  C   UNL     1      -4.568   2.154   2.232  1.00  0.00     0.006 A 
BRANCH  10  13
ATOM     13  C   UNL     1      -6.558   1.324   0.910  1.00  0.00     0.191 C 
BRANCH  13  14
ATOM     14  O   UNL     1      -6.938   0.049   1.294  1.00  0.00    -0.392 OA
ATOM     15  H   UNL     1      -7.498  -0.411   0.631  1.00  0.00     0.211 HD
ENDBRANCH  13  14
ENDBRANCH  10  13
ENDBRANCH   6   7
ENDBRANCH   1   6
BRANCH   1  16
ATOM     16  C   UNL     1      -0.311  -0.858  -0.834  1.00  0.00     0.088 C 
ATOM     17  C   UNL     1      -0.115  -0.835   0.640  1.00  0.00     0.041 C 
ATOM     18  C   UNL     1       0.861  -0.298  -1.600  1.00  0.00     0.041 C 
ATOM     19  C   UNL     1       1.261  -1.286   1.063  1.00  0.00     0.086 C 
ATOM     20  C   UNL     1       2.207  -0.726  -1.070  1.00  0.00     0.086 C 
ATOM     21  N   UNL     1       2.342  -0.658   0.354  1.00  0.00    -0.303 NA
BRANCH  21  22
ATOM     22  C   UNL     1       2.682   0.636   0.855  1.00  0.00     0.089 C 
BRANCH  22  23
ATOM     23  C   UNL     1       3.862   1.309   0.247  1.00  0.00     0.051 C 
BRANCH  23  24
ATOM     24  C   UNL     1       5.143   0.580   0.420  1.00  0.00    -0.047 A 
ATOM     25  C   UNL     1       5.864   0.867   1.589  1.00  0.00     0.004 A 
ATOM     26  C   UNL     1       5.762  -0.348  -0.388  1.00  0.00     0.004 A 
ATOM     27  C   UNL     1       7.072   0.306   1.942  1.00  0.00     0.000 A 
ATOM     28  C   UNL     1       6.954  -0.920  -0.067  1.00  0.00     0.000 A 
ATOM     29  C   UNL     1       7.636  -0.617   1.089  1.00  0.00     0.000 A 
ENDBRANCH  23  24
ENDBRANCH  22  23
ENDBRANCH  21  22
ENDBRANCH   1  16
TORSDOF 10
