REMARK SMILES CCC(=O)N(Cc1ccnc(CO)c1)C1CCN(CCc2ccc(F)cc2)CC1
REMARK SMILES IDX 5 1 3 2 4 3 2 4 1 5 6 6 7 7 14 8 8 9 11 10 9 11 10 12 12 13
REMARK SMILES IDX 13 14 15 16 16 17 29 18 17 19 28 20 18 21 19 22 20 23 21 24
REMARK SMILES IDX 22 25 27 26 23 27 26 28 24 29 25 30
REMARK H PARENT 13 15
REMARK Flexibility Score: inf
ROOT
ATOM      1  N   UNL     1      -1.985   1.283   0.145  1.00  0.00    -0.335 N 
ENDROOT
BRANCH   1   2
ATOM      2  C   UNL     1      -1.929   1.571  -1.242  1.00  0.00     0.222 C 
ATOM      3  O   UNL     1      -1.080   1.593  -2.170  1.00  0.00    -0.275 OA
BRANCH   2   4
ATOM      4  C   UNL     1      -3.012   1.994  -2.149  1.00  0.00     0.097 C 
ATOM      5  C   UNL     1      -2.423   2.184  -3.554  1.00  0.00     0.014 C 
ENDBRANCH   2   4
ENDBRANCH   1   2
BRANCH   1   6
ATOM      6  C   UNL     1      -3.153   1.352   0.973  1.00  0.00     0.155 C 
BRANCH   6   7
ATOM      7  C   UNL     1      -3.951   0.148   1.099  1.00  0.00    -0.025 A 
ATOM      8  C   UNL     1      -4.988  -0.222   0.308  1.00  0.00     0.031 A 
ATOM      9  C   UNL     1      -3.630  -0.731   2.141  1.00  0.00     0.025 A 
ATOM     10  C   UNL     1      -5.702  -1.395   0.500  1.00  0.00     0.066 A 
ATOM     11  C   UNL     1      -4.347  -1.889   2.317  1.00  0.00     0.112 A 
ATOM     12  N   UNL     1      -5.376  -2.239   1.517  1.00  0.00    -0.259 NA
BRANCH  10  13
ATOM     13  C   UNL     1      -6.842  -1.804  -0.369  1.00  0.00     0.212 C 
BRANCH  13  14
ATOM     14  O   UNL     1      -6.356  -2.579  -1.447  1.00  0.00    -0.390 OA
ATOM     15  H   UNL     1      -5.647  -3.164  -1.035  1.00  0.00     0.211 HD
ENDBRANCH  13  14
ENDBRANCH  10  13
ENDBRANCH   6   7
ENDBRANCH   1   6
BRANCH   1  16
ATOM     16  C   UNL     1      -0.684   0.883   0.708  1.00  0.00     0.088 C 
ATOM     17  C   UNL     1      -0.176  -0.381   0.114  1.00  0.00     0.041 C 
ATOM     18  C   UNL     1       0.294   2.034   0.691  1.00  0.00     0.041 C 
ATOM     19  C   UNL     1       1.096  -0.329  -0.635  1.00  0.00     0.086 C 
ATOM     20  C   UNL     1       1.704   1.505   0.835  1.00  0.00     0.086 C 
ATOM     21  N   UNL     1       2.048   0.625  -0.220  1.00  0.00    -0.303 NA
BRANCH  21  22
ATOM     22  C   UNL     1       3.419   0.286  -0.293  1.00  0.00     0.089 C 
BRANCH  22  23
ATOM     23  C   UNL     1       3.892  -0.780   0.650  1.00  0.00     0.051 C 
BRANCH  23  24
ATOM     24  C   UNL     1       5.361  -0.958   0.382  1.00  0.00    -0.047 A 
ATOM     25  C   UNL     1       6.379  -0.271   1.008  1.00  0.00     0.007 A 
ATOM     26  C   UNL     1       5.774  -1.884  -0.570  1.00  0.00     0.007 A 
ATOM     27  C   UNL     1       7.690  -0.502   0.696  1.00  0.00     0.039 A 
ATOM     28  C   UNL     1       7.087  -2.147  -0.913  1.00  0.00     0.039 A 
ATOM     29  C   UNL     1       8.059  -1.427  -0.253  1.00  0.00     0.123 A 
ATOM     30  F   UNL     1       9.363  -1.627  -0.533  1.00  0.00    -0.207 F 
ENDBRANCH  23  24
ENDBRANCH  22  23
ENDBRANCH  21  22
ENDBRANCH   1  16
TORSDOF 10
